
Spectre (R) Circuit Simulator
Version 17.1.0.433.isr9 64bit -- 5 Nov 2018
Copyright (C) 1989-2018 Cadence Design Systems, Inc. All rights reserved worldwide. Cadence and Spectre are registered trademarks of Cadence Design Systems, Inc. All others are the property of their respective holders.

Includes RSA BSAFE(R) Cryptographic or Security Protocol Software from RSA Security, Inc.

User: ykhuang   Host: s2424   HostID: ED824314   PID: 4502
Memory  available: 21.6640 GB  physical: 67.2863 GB
Linux   : CentOS Linux release 7.9.2009 (Core)
CPU Type: Intel(R) Xeon(R) CPU E5-2630 v3 @ 2.40GHz
        Socket: Processors [Frequency] (Hyperthreaded Processor)
        0:       0 [1200.0] ( 16 ),  1 [1243.4] ( 17 ),  2 [1200.0] ( 18 )
                 3 [3167.3] ( 19 ),  4 [1200.1] ( 20 ),  5 [1397.9] ( 21 )
                 6 [1200.0] ( 22 ),  7 [1390.4] ( 23 )
        1:       8 [1200.0] ( 24 ),  9 [1200.0] ( 25 ), 10 [1315.0] ( 26 )
                11 [1385.2] ( 27 ), 12 [1344.7] ( 28 ), 13 [1262.4] ( 29 )
                14 [1200.1] ( 30 ), 15 [1200.1] ( 31 )
        
System load averages (1min, 5min, 15min) : 4.5 %, 4.2 %, 3.9 %
Hyperthreading is enabled


Simulating `/home/ykhuang/WorkingDir_XH018/Sim/MultiChannel_EMG_TestBench/TCA_DSL_Chopping_TB/adexl/results/data/Interactive.47/1/MultiChannel_EMG_TestBench:TCA_DSL_Chopping_TB:1/netlist/.mapi//xcelium.d/AMSD/ams_spice_in/./.amsspice_pre.ckt' on s2424 at 3:29:30 PM, Mon Oct 11, 2021 (process id: 4502).
Current working directory: /home/ykhuang/WorkingDir_XH018/Sim/MultiChannel_EMG_TestBench/TCA_DSL_Chopping_TB/adexl/results/data/Interactive.47/1/MultiChannel_EMG_TestBench:TCA_DSL_Chopping_TB:1/netlist
Environment variable:
    SPECTRE_DEFAULTS=
Command line:
    amsprimtool  \
        /home/ykhuang/WorkingDir_XH018/Sim/MultiChannel_EMG_TestBench/TCA_DSL_Chopping_TB/adexl/results/data/Interactive.47/1/MultiChannel_EMG_TestBench:TCA_DSL_Chopping_TB:1/netlist/.mapi//xcelium.d/AMSD/ams_spice_in/./.amsspice_pre.ckt  \
        -noraw -va,amsspice_pre -ahdllibdir  \
        /home/ykhuang/WorkingDir_XH018/Sim/MultiChannel_EMG_TestBench/TCA_DSL_Chopping_TB/adexl/results/data/Interactive.47/1/MultiChannel_EMG_TestBench:TCA_DSL_Chopping_TB:1/netlist/.mapi//xcelium.d/AMSD/ams_spice_in/ahdlSimDB  \
        =log  \
        /home/ykhuang/WorkingDir_XH018/Sim/MultiChannel_EMG_TestBench/TCA_DSL_Chopping_TB/adexl/results/data/Interactive.47/1/MultiChannel_EMG_TestBench:TCA_DSL_Chopping_TB:1/netlist/.mapi//xcelium.d/AMSD/ams_spice_in/./.amsspice_pre.ckt.log  \
        -token  \
        0001AF26C83A239465DFBB2CC00A229E73C4B63DFD3B60CB2080E838B83335D47FDDA126F37837D471DEB338DD1737BF79DEBF55B57661C35880EE1DB70325973FFD8A3BF7303E9E71DEAA2FD506049E57EF843BF66738D47ED3AD31F5201CA454E3B724C0333E9C60D98B76D710358371D4A92DED673C8F63C5B83DB15A7FB264D1AC2CF721249271D3B126AA7661D4279FAD0AC828389A79F39214CE151DBC4FF5B90CD706359564F2D128D1100FBF53F19F11CE00208B78DF9B20BE636ACA44F2A120B126238F7CD9B535ED3D7FD460D9A424F8713DD579C5BA34A6727F9A43F48727E32A339E60D9E83D9C347E9A3E9FB22EE51035A479D3AE78E96E24DB73DBAF6FEA6E629F2586A83DCE88537F10B0A126F35737FB71DEA80F9E0E50FB24B0C4528E5D339A7CDFB374B06561CA648AA83DC30C50FB10B0C959D1046CC371D4000091E7

Loading /pkg/cadence/installs/XCELIUM1803/tools.lnx86/cmi/lib/64bit/5.0/libinfineon_sh.so ...
Loading /pkg/cadence/installs/XCELIUM1803/tools.lnx86/cmi/lib/64bit/5.0/libphilips_o_sh.so ...
Loading /pkg/cadence/installs/XCELIUM1803/tools.lnx86/cmi/lib/64bit/5.0/libphilips_sh.so ...
Loading /pkg/cadence/installs/XCELIUM1803/tools.lnx86/cmi/lib/64bit/5.0/libsparam_sh.so ...
Loading /pkg/cadence/installs/XCELIUM1803/tools.lnx86/cmi/lib/64bit/5.0/libstmodels_sh.so ...
Reading file:  /home/ykhuang/WorkingDir_XH018/Sim/MultiChannel_EMG_TestBench/TCA_DSL_Chopping_TB/adexl/results/data/Interactive.47/1/MultiChannel_EMG_TestBench:TCA_DSL_Chopping_TB:1/netlist/.mapi/xcelium.d/AMSD/ams_spice_in/.amsspice_pre.ckt
Reading file:  /pkg/cadence/installs/XCELIUM1803/tools.lnx86/spectre/etc/configs/mapsubckt.cfg
Reading file:  /pkg/cadence/installs/XCELIUM1803/tools.lnx86/spectre/etc/configs/spectre.cfg
Time for NDB Parsing: CPU = 113.253 ms, elapsed = 205.358 ms.
Time accumulated: CPU = 172.852 ms, elapsed = 205.369 ms.
Peak resident memory used = 50.4 Mbytes.

