
Spectre (R) Circuit Simulator
Version 18.1.0.516.isr12 64bit -- 25 Oct 2019
Copyright (C) 1989-2019 Cadence Design Systems, Inc. All rights reserved worldwide. Cadence and Spectre are registered trademarks of Cadence Design Systems, Inc. All others are the property of their respective holders.

Includes RSA BSAFE(R) Cryptographic or Security Protocol Software from RSA Security, Inc.

User: ykhuang   Host: s2424   HostID: ED824314   PID: 12022
Memory  available: 44.8878 GB  physical: 67.2863 GB
Linux   : CentOS Linux release 7.9.2009 (Core)
CPU Type: Intel(R) Xeon(R) CPU E5-2630 v3 @ 2.40GHz
        Socket: Processors [Frequency] (Hyperthreaded Processor)
        0:       0 [1263.3] ( 16 ),  1 [1233.4] ( 17 ),  2 [1435.8] ( 18 )
                 3 [1398.6] ( 19 ),  4 [1262.3] ( 20 ),  5 [1234.1] ( 21 )
                 6 [1200.0] ( 22 ),  7 [1218.6] ( 23 )
        1:       8 [1200.0] ( 24 ),  9 [1273.5] ( 25 ), 10 [1493.3] ( 26 )
                11 [1304.6] ( 27 ), 12 [1238.5] ( 28 ), 13 [1206.6] ( 29 )
                14 [1279.0] ( 30 ), 15 [1300.0] ( 31 )
        
System load averages (1min, 5min, 15min) : 0.9 %, 0.6 %, 0.5 %
Hyperthreading is enabled


Simulating `input.scs' on s2424 at 11:02:12 AM, Fri Oct 1, 2021 (process id: 12022).
Current working directory: /home/ykhuang/WorkingDir_XH018/Sim/MultiChannel_EMG_TestBench/TCA_DSL_TB/adexl/results/data/Interactive.1/1/MultiChannel_EMG_TestBench:TCA_DSL_TB:1/netlist
Command line:
    /pkg/cadence/installs/SPECTRE181/tools/bin/spectre -64 input.scs  \
        +escchars +log ../psf/spectre.out -format psfxl -raw ../psf  \
        +lqtimeout 900 -maxw 5 -maxn 5 -env ade -ahdllibdir  \
        /home/ykhuang/WorkingDir_XH018/Sim/MultiChannel_EMG_TestBench/TCA_DSL_TB/adexl/results/data/Interactive.1/sharedData/CDS/ahdl/input.ahdlSimDB  \
        +logstatus

Loading /pkg/cadence/installs/SPECTRE181/tools.lnx86/cmi/lib/64bit/5.0/libinfineon_sh.so ...
Loading /pkg/cadence/installs/SPECTRE181/tools.lnx86/cmi/lib/64bit/5.0/libphilips_o_sh.so ...
Loading /pkg/cadence/installs/SPECTRE181/tools.lnx86/cmi/lib/64bit/5.0/libphilips_sh.so ...
Loading /pkg/cadence/installs/SPECTRE181/tools.lnx86/cmi/lib/64bit/5.0/libsparam_sh.so ...
Loading /pkg/cadence/installs/SPECTRE181/tools.lnx86/cmi/lib/64bit/5.0/libstmodels_sh.so ...
Reading file:  /home/ykhuang/WorkingDir_XH018/Sim/MultiChannel_EMG_TestBench/TCA_DSL_TB/adexl/results/data/Interactive.1/1/MultiChannel_EMG_TestBench:TCA_DSL_TB:1/netlist/input.scs
Reading file:  /pkg/cadence/installs/SPECTRE181/tools.lnx86/spectre/etc/configs/spectre.cfg
Reading file:  /pkg/xfab/XKIT/xh018/cadence/v8_0/spectre/v8_0_1/lpmos/config.scs
Reading file:  /pkg/xfab/XKIT/xh018/cadence/v8_0/spectre/v8_0_1/lpmos/param.scs
Reading file:  /pkg/xfab/XKIT/xh018/cadence/v8_0/spectre/v8_0_1/lpmos/bip.scs
Reading file:  /pkg/xfab/XKIT/xh018/cadence/v8_0/spectre/v8_0_1/lpmos/models/bip/tm_bip.scs
Reading file:  /pkg/xfab/XKIT/xh018/cadence/v8_0/spectre/v8_0_1/lpmos/models/bip/qpva.scs
Reading file:  /pkg/xfab/XKIT/xh018/cadence/v8_0/spectre/v8_0_1/lpmos/models/bip/qpvb.scs
Reading file:  /pkg/xfab/XKIT/xh018/cadence/v8_0/spectre/v8_0_1/lpmos/models/bip/qpvc.scs
Reading file:  /pkg/xfab/XKIT/xh018/cadence/v8_0/spectre/v8_0_1/lpmos/models/bip/qpva3.scs
Reading file:  /pkg/xfab/XKIT/xh018/cadence/v8_0/spectre/v8_0_1/lpmos/models/bip/qpvb3.scs
Reading file:  /pkg/xfab/XKIT/xh018/cadence/v8_0/spectre/v8_0_1/lpmos/models/bip/qpvc3.scs
Reading file:  /pkg/xfab/XKIT/xh018/cadence/v8_0/spectre/v8_0_1/lpmos/models/bip/qnva.scs
Reading file:  /pkg/xfab/XKIT/xh018/cadence/v8_0/spectre/v8_0_1/lpmos/models/bip/qnvb.scs
Reading file:  /pkg/xfab/XKIT/xh018/cadence/v8_0/spectre/v8_0_1/lpmos/models/bip/qnvb_npn.scs
Reading file:  /pkg/xfab/XKIT/xh018/cadence/v8_0/spectre/v8_0_1/lpmos/models/bip/qnvb_pnp.scs
Reading file:  /pkg/xfab/XKIT/xh018/cadence/v8_0/spectre/v8_0_1/lpmos/models/bip/qnvc.scs
Reading file:  /pkg/xfab/XKIT/xh018/cadence/v8_0/spectre/v8_0_1/lpmos/models/bip/qnvc_npn.scs
Reading file:  /pkg/xfab/XKIT/xh018/cadence/v8_0/spectre/v8_0_1/lpmos/models/bip/qnvc_pnp.scs
Reading file:  /pkg/xfab/XKIT/xh018/cadence/v8_0/spectre/v8_0_1/lpmos/models/bip/qpvhscr.scs
Reading file:  /pkg/xfab/XKIT/xh018/cadence/v8_0/spectre/v8_0_1/lpmos/models/bip/qpvascr.scs
Reading file:  /pkg/xfab/XKIT/xh018/cadence/v8_0/spectre/v8_0_1/lpmos/models/bip/qpvhbscr.scs
Reading file:  /pkg/xfab/XKIT/xh018/cadence/v8_0/spectre/v8_0_1/lpmos/models/bip/qpv_pa.scs
Reading file:  /pkg/xfab/XKIT/xh018/cadence/v8_0/spectre/v8_0_1/lpmos/models/bip/qpv_pb.scs
Reading file:  /pkg/xfab/XKIT/xh018/cadence/v8_0/spectre/v8_0_1/lpmos/models/bip/qpv_pc.scs
Reading file:  /pkg/xfab/XKIT/xh018/cadence/v8_0/spectre/v8_0_1/lpmos/models/bip/qpv_pd.scs
Reading file:  /pkg/xfab/XKIT/xh018/cadence/v8_0/spectre/v8_0_1/lpmos/models/bip/qpv_pe.scs
Reading file:  /pkg/xfab/XKIT/xh018/cadence/v8_0/spectre/v8_0_1/lpmos/models/bip/qpv_pf.scs
Reading file:  /pkg/xfab/XKIT/xh018/cadence/v8_0/spectre/v8_0_1/lpmos/models/bip/qpl_pa.scs
Reading file:  /pkg/xfab/XKIT/xh018/cadence/v8_0/spectre/v8_0_1/lpmos/models/bip/qpl_pb.scs
Reading file:  /pkg/xfab/XKIT/xh018/cadence/v8_0/spectre/v8_0_1/lpmos/models/bip/qpl_pc.scs
Reading file:  /pkg/xfab/XKIT/xh018/cadence/v8_0/spectre/v8_0_1/lpmos/models/bip/qpl_pd.scs
Reading file:  /pkg/xfab/XKIT/xh018/cadence/v8_0/spectre/v8_0_1/lpmos/models/bip/qpl_pe.scs
Reading file:  /pkg/xfab/XKIT/xh018/cadence/v8_0/spectre/v8_0_1/lpmos/models/bip/qpl_pf.scs
Reading file:  /pkg/xfab/XKIT/xh018/cadence/v8_0/spectre/v8_0_1/lpmos/models/bip/qnl_pa.scs
Reading file:  /pkg/xfab/XKIT/xh018/cadence/v8_0/spectre/v8_0_1/lpmos/models/bip/qnl_pb.scs
Reading file:  /pkg/xfab/XKIT/xh018/cadence/v8_0/spectre/v8_0_1/lpmos/models/bip/qnl_pc.scs
Reading file:  /pkg/xfab/XKIT/xh018/cadence/v8_0/spectre/v8_0_1/lpmos/models/bip/qnl_pd.scs
Reading file:  /pkg/xfab/XKIT/xh018/cadence/v8_0/spectre/v8_0_1/lpmos/models/bip/qnl_pe.scs
Reading file:  /pkg/xfab/XKIT/xh018/cadence/v8_0/spectre/v8_0_1/lpmos/models/bip/qnl_pf.scs
Reading file:  /pkg/xfab/XKIT/xh018/cadence/v8_0/spectre/v8_0_1/lpmos/cap.scs
Reading file:  /pkg/xfab/XKIT/xh018/cadence/v8_0/spectre/v8_0_1/lpmos/models/cap/tm_cap.scs
Reading file:  /pkg/xfab/XKIT/xh018/cadence/v8_0/spectre/v8_0_1/lpmos/models/cap/csandwt3.scs
Reading file:  /pkg/xfab/XKIT/xh018/cadence/v8_0/spectre/v8_0_1/lpmos/models/cap/csandwt4.scs
Reading file:  /pkg/xfab/XKIT/xh018/cadence/v8_0/spectre/v8_0_1/lpmos/models/cap/csandwt5.scs
Reading file:  /pkg/xfab/XKIT/xh018/cadence/v8_0/spectre/v8_0_1/lpmos/models/cap/csf2p.scs
Reading file:  /pkg/xfab/XKIT/xh018/cadence/v8_0/spectre/v8_0_1/lpmos/models/cap/csf3p.scs
Reading file:  /pkg/xfab/XKIT/xh018/cadence/v8_0/spectre/v8_0_1/lpmos/models/cap/csf3.scs
Reading file:  /pkg/xfab/XKIT/xh018/cadence/v8_0/spectre/v8_0_1/lpmos/models/cap/csf4.scs
Reading file:  /pkg/xfab/XKIT/xh018/cadence/v8_0/spectre/v8_0_1/lpmos/models/cap/csf5.scs
Reading file:  /pkg/xfab/XKIT/xh018/cadence/v8_0/spectre/v8_0_1/lpmos/models/cap/csft4.scs
Reading file:  /pkg/xfab/XKIT/xh018/cadence/v8_0/spectre/v8_0_1/lpmos/models/cap/csft5.scs
Reading file:  /pkg/xfab/XKIT/xh018/cadence/v8_0/spectre/v8_0_1/lpmos/models/cap/csft6.scs
Reading file:  /pkg/xfab/XKIT/xh018/cadence/v8_0/spectre/v8_0_1/lpmos/models/cap/csf3a.scs
Reading file:  /pkg/xfab/XKIT/xh018/cadence/v8_0/spectre/v8_0_1/lpmos/models/cap/csf4a.scs
Reading file:  /pkg/xfab/XKIT/xh018/cadence/v8_0/spectre/v8_0_1/lpmos/models/cap/csf5a.scs
Reading file:  /pkg/xfab/XKIT/xh018/cadence/v8_0/spectre/v8_0_1/lpmos/models/cap/csft4a.scs
Reading file:  /pkg/xfab/XKIT/xh018/cadence/v8_0/spectre/v8_0_1/lpmos/models/cap/csft5a.scs
Reading file:  /pkg/xfab/XKIT/xh018/cadence/v8_0/spectre/v8_0_1/lpmos/models/cap/csft6a.scs
Reading file:  /pkg/xfab/XKIT/xh018/cadence/v8_0/spectre/v8_0_1/lpmos/models/cap/cmm3.scs
Reading file:  /pkg/xfab/XKIT/xh018/cadence/v8_0/spectre/v8_0_1/lpmos/models/cap/cmm4t.scs
Reading file:  /pkg/xfab/XKIT/xh018/cadence/v8_0/spectre/v8_0_1/lpmos/models/cap/cmm4.scs
Reading file:  /pkg/xfab/XKIT/xh018/cadence/v8_0/spectre/v8_0_1/lpmos/models/cap/cmm5t.scs
Reading file:  /pkg/xfab/XKIT/xh018/cadence/v8_0/spectre/v8_0_1/lpmos/models/cap/cmm6t.scs
Reading file:  /pkg/xfab/XKIT/xh018/cadence/v8_0/spectre/v8_0_1/lpmos/models/cap/cdmm4.scs
Reading file:  /pkg/xfab/XKIT/xh018/cadence/v8_0/spectre/v8_0_1/lpmos/models/cap/cdmm4t.scs
Reading file:  /pkg/xfab/XKIT/xh018/cadence/v8_0/spectre/v8_0_1/lpmos/models/cap/ctmm5.scs
Reading file:  /pkg/xfab/XKIT/xh018/cadence/v8_0/spectre/v8_0_1/lpmos/models/cap/ctmm5t.scs
Reading file:  /pkg/xfab/XKIT/xh018/cadence/v8_0/spectre/v8_0_1/lpmos/models/cap/cmmh3.scs
Reading file:  /pkg/xfab/XKIT/xh018/cadence/v8_0/spectre/v8_0_1/lpmos/models/cap/cmmh4t.scs
Reading file:  /pkg/xfab/XKIT/xh018/cadence/v8_0/spectre/v8_0_1/lpmos/models/cap/cmmh4.scs
Reading file:  /pkg/xfab/XKIT/xh018/cadence/v8_0/spectre/v8_0_1/lpmos/models/cap/cmmh5t.scs
Reading file:  /pkg/xfab/XKIT/xh018/cadence/v8_0/spectre/v8_0_1/lpmos/models/cap/cmmh6t.scs
Reading file:  /pkg/xfab/XKIT/xh018/cadence/v8_0/spectre/v8_0_1/lpmos/models/cap/cdmmh4.scs
Reading file:  /pkg/xfab/XKIT/xh018/cadence/v8_0/spectre/v8_0_1/lpmos/models/cap/cdmmh4t.scs
Reading file:  /pkg/xfab/XKIT/xh018/cadence/v8_0/spectre/v8_0_1/lpmos/models/cap/ctmmh5.scs
Reading file:  /pkg/xfab/XKIT/xh018/cadence/v8_0/spectre/v8_0_1/lpmos/models/cap/ctmmh5t.scs
Reading file:  /pkg/xfab/XKIT/xh018/cadence/v8_0/spectre/v8_0_1/lpmos/models/cap/mosvc.scs
Reading file:  /pkg/xfab/XKIT/xh018/cadence/v8_0/spectre/v8_0_1/lpmos/models/cap/mosvc_pmos.scs
Reading file:  /pkg/xfab/XKIT/xh018/cadence/v8_0/spectre/v8_0_1/lpmos/models/cap/mosvci.scs
Reading file:  /pkg/xfab/XKIT/xh018/cadence/v8_0/spectre/v8_0_1/lpmos/models/cap/mosvci_nmos.scs
Reading file:  /pkg/xfab/XKIT/xh018/cadence/v8_0/spectre/v8_0_1/lpmos/models/cap/mosvci_m.scs
Reading file:  /pkg/xfab/XKIT/xh018/cadence/v8_0/spectre/v8_0_1/lpmos/models/cap/mosvc3.scs
Reading file:  /pkg/xfab/XKIT/xh018/cadence/v8_0/spectre/v8_0_1/lpmos/models/cap/mosvc3_pmos.scs
Reading file:  /pkg/xfab/XKIT/xh018/cadence/v8_0/spectre/v8_0_1/lpmos/models/cap/mosvc3i.scs
Reading file:  /pkg/xfab/XKIT/xh018/cadence/v8_0/spectre/v8_0_1/lpmos/models/cap/mosvc3i_nmos.scs
Reading file:  /pkg/xfab/XKIT/xh018/cadence/v8_0/spectre/v8_0_1/lpmos/models/cap/mosvc3i_m.scs
Reading file:  /pkg/xfab/XKIT/xh018/cadence/v8_0/spectre/v8_0_1/lpmos/models/cap/cpod.scs
Reading file:  /pkg/xfab/XKIT/xh018/cadence/v8_0/spectre/v8_0_1/lpmos/models/cap/cpod_i.scs
Reading file:  /pkg/xfab/XKIT/xh018/cadence/v8_0/spectre/v8_0_1/lpmos/models/cap/cpodhv.scs
Reading file:  /pkg/xfab/XKIT/xh018/cadence/v8_0/spectre/v8_0_1/lpmos/models/cap/cpodhv_i.scs
Reading file:  /pkg/xfab/XKIT/xh018/cadence/v8_0/spectre/v8_0_1/lpmos/models/cap/cp1sub.scs
Reading file:  /pkg/xfab/XKIT/xh018/cadence/v8_0/spectre/v8_0_1/lpmos/models/cap/cp1suba.scs
Reading file:  /pkg/xfab/XKIT/xh018/cadence/v8_0/spectre/v8_0_1/lpmos/models/cap/cp1subp.scs
Reading file:  /pkg/xfab/XKIT/xh018/cadence/v8_0/spectre/v8_0_1/lpmos/models/cap/tag_25v.scs
Reading file:  /pkg/xfab/XKIT/xh018/cadence/v8_0/spectre/v8_0_1/lpmos/models/cap/tag_60v.scs
Reading file:  /pkg/xfab/XKIT/xh018/cadence/v8_0/spectre/v8_0_1/lpmos/dio.scs
Reading file:  /pkg/xfab/XKIT/xh018/cadence/v8_0/spectre/v8_0_1/lpmos/models/dio/tm_dio.scs
Reading file:  /pkg/xfab/XKIT/xh018/cadence/v8_0/spectre/v8_0_1/lpmos/models/dio/dn.scs
Reading file:  /pkg/xfab/XKIT/xh018/cadence/v8_0/spectre/v8_0_1/lpmos/models/dio/dp.scs
Reading file:  /pkg/xfab/XKIT/xh018/cadence/v8_0/spectre/v8_0_1/lpmos/models/dio/dnw.scs
Reading file:  /pkg/xfab/XKIT/xh018/cadence/v8_0/spectre/v8_0_1/lpmos/models/dio/dn3.scs
Reading file:  /pkg/xfab/XKIT/xh018/cadence/v8_0/spectre/v8_0_1/lpmos/models/dio/dnn3.scs
Reading file:  /pkg/xfab/XKIT/xh018/cadence/v8_0/spectre/v8_0_1/lpmos/models/dio/dp3.scs
Reading file:  /pkg/xfab/XKIT/xh018/cadence/v8_0/spectre/v8_0_1/lpmos/models/dio/dnw3.scs
Reading file:  /pkg/xfab/XKIT/xh018/cadence/v8_0/spectre/v8_0_1/lpmos/models/dio/ddnwmv.scs
Reading file:  /pkg/xfab/XKIT/xh018/cadence/v8_0/spectre/v8_0_1/lpmos/models/dio/dpdnwmv.scs
Reading file:  /pkg/xfab/XKIT/xh018/cadence/v8_0/spectre/v8_0_1/lpmos/models/dio/dipdnwmv.scs
Reading file:  /pkg/xfab/XKIT/xh018/cadence/v8_0/spectre/v8_0_1/lpmos/models/dio/ddnw.scs
Reading file:  /pkg/xfab/XKIT/xh018/cadence/v8_0/spectre/v8_0_1/lpmos/models/dio/dpdnw.scs
Reading file:  /pkg/xfab/XKIT/xh018/cadence/v8_0/spectre/v8_0_1/lpmos/models/dio/dipdnw.scs
Reading file:  /pkg/xfab/XKIT/xh018/cadence/v8_0/spectre/v8_0_1/lpmos/models/dio/dnhpw.scs
Reading file:  /pkg/xfab/XKIT/xh018/cadence/v8_0/spectre/v8_0_1/lpmos/models/dio/dnhpwa.scs
Reading file:  /pkg/xfab/XKIT/xh018/cadence/v8_0/spectre/v8_0_1/lpmos/models/dio/dphnw.scs
Reading file:  /pkg/xfab/XKIT/xh018/cadence/v8_0/spectre/v8_0_1/lpmos/models/dio/dphnwa.scs
Reading file:  /pkg/xfab/XKIT/xh018/cadence/v8_0/spectre/v8_0_1/lpmos/models/dio/dhpw.scs
Reading file:  /pkg/xfab/XKIT/xh018/cadence/v8_0/spectre/v8_0_1/lpmos/models/dio/dhnw.scs
Reading file:  /pkg/xfab/XKIT/xh018/cadence/v8_0/spectre/v8_0_1/lpmos/models/dio/dndf.scs
Reading file:  /pkg/xfab/XKIT/xh018/cadence/v8_0/spectre/v8_0_1/lpmos/models/dio/dpdwhn.scs
Reading file:  /pkg/xfab/XKIT/xh018/cadence/v8_0/spectre/v8_0_1/lpmos/models/dio/dwhn.scs
Reading file:  /pkg/xfab/XKIT/xh018/cadence/v8_0/spectre/v8_0_1/lpmos/models/dio/dpwhn.scs
Reading file:  /pkg/xfab/XKIT/xh018/cadence/v8_0/spectre/v8_0_1/lpmos/models/dio/dpndf.scs
Reading file:  /pkg/xfab/XKIT/xh018/cadence/v8_0/spectre/v8_0_1/lpmos/models/dio/dpdddnw.scs
Reading file:  /pkg/xfab/XKIT/xh018/cadence/v8_0/spectre/v8_0_1/lpmos/models/dio/ddpldnw.scs
Reading file:  /pkg/xfab/XKIT/xh018/cadence/v8_0/spectre/v8_0_1/lpmos/models/dio/dn3dpl.scs
Reading file:  /pkg/xfab/XKIT/xh018/cadence/v8_0/spectre/v8_0_1/lpmos/models/dio/dbn.scs
Reading file:  /pkg/xfab/XKIT/xh018/cadence/v8_0/spectre/v8_0_1/lpmos/models/dio/dpol.scs
Reading file:  /pkg/xfab/XKIT/xh018/cadence/v8_0/spectre/v8_0_1/lpmos/models/dio/dnpdd_scr.scs
Reading file:  /pkg/xfab/XKIT/xh018/cadence/v8_0/spectre/v8_0_1/lpmos/models/dio/dpdd_scr.scs
Reading file:  /pkg/xfab/XKIT/xh018/cadence/v8_0/spectre/v8_0_1/lpmos/models/dio/dsb.scs
Reading file:  /pkg/xfab/XKIT/xh018/cadence/v8_0/spectre/v8_0_1/lpmos/models/dio/dsba.scs
Reading file:  /pkg/xfab/XKIT/xh018/cadence/v8_0/spectre/v8_0_1/lpmos/models/dio/dsba_qp1.scs
Reading file:  /pkg/xfab/XKIT/xh018/cadence/v8_0/spectre/v8_0_1/lpmos/models/dio/dnp20.scs
Reading file:  /pkg/xfab/XKIT/xh018/cadence/v8_0/spectre/v8_0_1/lpmos/models/dio/dpp20.scs
Reading file:  /pkg/xfab/XKIT/xh018/cadence/v8_0/spectre/v8_0_1/lpmos/models/dio/dn3sci.scs
Reading file:  /pkg/xfab/XKIT/xh018/cadence/v8_0/spectre/v8_0_1/lpmos/models/dio/dscidnwmv.scs
Reading file:  /pkg/xfab/XKIT/xh018/cadence/v8_0/spectre/v8_0_1/lpmos/mos.scs
Reading file:  /pkg/xfab/XKIT/xh018/cadence/v8_0/spectre/v8_0_1/lpmos/models/mos/tm_mos.scs
Reading file:  /pkg/xfab/XKIT/xh018/cadence/v8_0/spectre/v8_0_1/lpmos/models/mos/ne.scs
Reading file:  /pkg/xfab/XKIT/xh018/cadence/v8_0/spectre/v8_0_1/lpmos/models/mos/nei.scs
Reading file:  /pkg/xfab/XKIT/xh018/cadence/v8_0/spectre/v8_0_1/lpmos/models/mos/nei_6.scs
Reading file:  /pkg/xfab/XKIT/xh018/cadence/v8_0/spectre/v8_0_1/lpmos/models/mos/nei_m_6.scs
Reading file:  /pkg/xfab/XKIT/xh018/cadence/v8_0/spectre/v8_0_1/lpmos/models/mos/pe.scs
Reading file:  /pkg/xfab/XKIT/xh018/cadence/v8_0/spectre/v8_0_1/lpmos/models/mos/pe_5.scs
Reading file:  /pkg/xfab/XKIT/xh018/cadence/v8_0/spectre/v8_0_1/lpmos/models/mos/pei.scs
Reading file:  /pkg/xfab/XKIT/xh018/cadence/v8_0/spectre/v8_0_1/lpmos/models/mos/pei_5.scs
Reading file:  /pkg/xfab/XKIT/xh018/cadence/v8_0/spectre/v8_0_1/lpmos/models/mos/pei_m_5.scs
Reading file:  /pkg/xfab/XKIT/xh018/cadence/v8_0/spectre/v8_0_1/lpmos/models/mos/nel.scs
Reading file:  /pkg/xfab/XKIT/xh018/cadence/v8_0/spectre/v8_0_1/lpmos/models/mos/neli.scs
Reading file:  /pkg/xfab/XKIT/xh018/cadence/v8_0/spectre/v8_0_1/lpmos/models/mos/neli_6.scs
Reading file:  /pkg/xfab/XKIT/xh018/cadence/v8_0/spectre/v8_0_1/lpmos/models/mos/neli_m_6.scs
Reading file:  /pkg/xfab/XKIT/xh018/cadence/v8_0/spectre/v8_0_1/lpmos/models/mos/pel.scs
Reading file:  /pkg/xfab/XKIT/xh018/cadence/v8_0/spectre/v8_0_1/lpmos/models/mos/pel_5.scs
Reading file:  /pkg/xfab/XKIT/xh018/cadence/v8_0/spectre/v8_0_1/lpmos/models/mos/peli.scs
Reading file:  /pkg/xfab/XKIT/xh018/cadence/v8_0/spectre/v8_0_1/lpmos/models/mos/peli_5.scs
Reading file:  /pkg/xfab/XKIT/xh018/cadence/v8_0/spectre/v8_0_1/lpmos/models/mos/peli_m_5.scs
Reading file:  /pkg/xfab/XKIT/xh018/cadence/v8_0/spectre/v8_0_1/lpmos/models/mos/nn3.scs
Reading file:  /pkg/xfab/XKIT/xh018/cadence/v8_0/spectre/v8_0_1/lpmos/models/mos/ne3.scs
Reading file:  /pkg/xfab/XKIT/xh018/cadence/v8_0/spectre/v8_0_1/lpmos/models/mos/ne3i.scs
Reading file:  /pkg/xfab/XKIT/xh018/cadence/v8_0/spectre/v8_0_1/lpmos/models/mos/ne3i_6.scs
Reading file:  /pkg/xfab/XKIT/xh018/cadence/v8_0/spectre/v8_0_1/lpmos/models/mos/ne3i_m_6.scs
Reading file:  /pkg/xfab/XKIT/xh018/cadence/v8_0/spectre/v8_0_1/lpmos/models/mos/pe3.scs
Reading file:  /pkg/xfab/XKIT/xh018/cadence/v8_0/spectre/v8_0_1/lpmos/models/mos/pe3_5.scs
Reading file:  /pkg/xfab/XKIT/xh018/cadence/v8_0/spectre/v8_0_1/lpmos/models/mos/pe3i.scs
Reading file:  /pkg/xfab/XKIT/xh018/cadence/v8_0/spectre/v8_0_1/lpmos/models/mos/pe3i_5.scs
Reading file:  /pkg/xfab/XKIT/xh018/cadence/v8_0/spectre/v8_0_1/lpmos/models/mos/pe3i_m_5.scs
Reading file:  /pkg/xfab/XKIT/xh018/cadence/v8_0/spectre/v8_0_1/lpmos/models/mos/pe3ln.scs
Reading file:  /pkg/xfab/XKIT/xh018/cadence/v8_0/spectre/v8_0_1/lpmos/models/mos/pe3ln_5.scs
Reading file:  /pkg/xfab/XKIT/xh018/cadence/v8_0/spectre/v8_0_1/lpmos/models/mos/pe3lni.scs
Reading file:  /pkg/xfab/XKIT/xh018/cadence/v8_0/spectre/v8_0_1/lpmos/models/mos/pe3lni_5.scs
Reading file:  /pkg/xfab/XKIT/xh018/cadence/v8_0/spectre/v8_0_1/lpmos/models/mos/pe3lni_m_5.scs
Reading file:  /pkg/xfab/XKIT/xh018/cadence/v8_0/spectre/v8_0_1/lpmos/models/mos/nd3.scs
Reading file:  /pkg/xfab/XKIT/xh018/cadence/v8_0/spectre/v8_0_1/lpmos/models/mos/nd3_mos1.scs
Reading file:  /pkg/xfab/XKIT/xh018/cadence/v8_0/spectre/v8_0_1/lpmos/models/mos/nd3_mos2.scs
Reading file:  /pkg/xfab/XKIT/xh018/cadence/v8_0/spectre/v8_0_1/lpmos/models/mos/nd3i.scs
Reading file:  /pkg/xfab/XKIT/xh018/cadence/v8_0/spectre/v8_0_1/lpmos/models/mos/nd3i_mos1.scs
Reading file:  /pkg/xfab/XKIT/xh018/cadence/v8_0/spectre/v8_0_1/lpmos/models/mos/nd3i_mos2.scs
Reading file:  /pkg/xfab/XKIT/xh018/cadence/v8_0/spectre/v8_0_1/lpmos/models/mos/nd3i_6.scs
Reading file:  /pkg/xfab/XKIT/xh018/cadence/v8_0/spectre/v8_0_1/lpmos/models/mos/nd3i_m_6.scs
Reading file:  /pkg/xfab/XKIT/xh018/cadence/v8_0/spectre/v8_0_1/lpmos/models/mos/nelna.scs
Reading file:  /pkg/xfab/XKIT/xh018/cadence/v8_0/spectre/v8_0_1/lpmos/models/mos/nelnai.scs
Reading file:  /pkg/xfab/XKIT/xh018/cadence/v8_0/spectre/v8_0_1/lpmos/models/mos/nelnai_6.scs
Reading file:  /pkg/xfab/XKIT/xh018/cadence/v8_0/spectre/v8_0_1/lpmos/models/mos/nelnai_m_6.scs
Reading file:  /pkg/xfab/XKIT/xh018/cadence/v8_0/spectre/v8_0_1/lpmos/models/mos/ne3lna.scs
Reading file:  /pkg/xfab/XKIT/xh018/cadence/v8_0/spectre/v8_0_1/lpmos/models/mos/ne3lnai.scs
Reading file:  /pkg/xfab/XKIT/xh018/cadence/v8_0/spectre/v8_0_1/lpmos/models/mos/ne3lnai_6.scs
Reading file:  /pkg/xfab/XKIT/xh018/cadence/v8_0/spectre/v8_0_1/lpmos/models/mos/ne3lnai_m_6.scs
Reading file:  /pkg/xfab/XKIT/xh018/cadence/v8_0/spectre/v8_0_1/lpmos/models/mos/pe3lna.scs
Reading file:  /pkg/xfab/XKIT/xh018/cadence/v8_0/spectre/v8_0_1/lpmos/models/mos/pe3lna_5.scs
Reading file:  /pkg/xfab/XKIT/xh018/cadence/v8_0/spectre/v8_0_1/lpmos/models/mos/pe3lnai.scs
Reading file:  /pkg/xfab/XKIT/xh018/cadence/v8_0/spectre/v8_0_1/lpmos/models/mos/pe3lnai_5.scs
Reading file:  /pkg/xfab/XKIT/xh018/cadence/v8_0/spectre/v8_0_1/lpmos/models/mos/pe3lnai_m_5.scs
Reading file:  /pkg/xfab/XKIT/xh018/cadence/v8_0/spectre/v8_0_1/lpmos/models/mos/nmma.scs
Reading file:  /pkg/xfab/XKIT/xh018/cadence/v8_0/spectre/v8_0_1/lpmos/models/mos/jf_nmma.scs
Reading file:  /pkg/xfab/XKIT/xh018/cadence/v8_0/spectre/v8_0_1/lpmos/models/mos/nmma_bjt.scs
Reading file:  /pkg/xfab/XKIT/xh018/cadence/v8_0/spectre/v8_0_1/lpmos/models/mos/pmma.scs
Reading file:  /pkg/xfab/XKIT/xh018/cadence/v8_0/spectre/v8_0_1/lpmos/models/mos/jf_pmma.scs
Reading file:  /pkg/xfab/XKIT/xh018/cadence/v8_0/spectre/v8_0_1/lpmos/models/mos/pmma_bjt.scs
Reading file:  /pkg/xfab/XKIT/xh018/cadence/v8_0/spectre/v8_0_1/lpmos/models/mos/nedi.scs
Reading file:  /pkg/xfab/XKIT/xh018/cadence/v8_0/spectre/v8_0_1/lpmos/models/mos/nedi_bjt.scs
Reading file:  /pkg/xfab/XKIT/xh018/cadence/v8_0/spectre/v8_0_1/lpmos/models/mos/nedia.scs
Reading file:  /pkg/xfab/XKIT/xh018/cadence/v8_0/spectre/v8_0_1/lpmos/models/mos/nedia_bjt.scs
Reading file:  /pkg/xfab/XKIT/xh018/cadence/v8_0/spectre/v8_0_1/lpmos/models/mos/ped2.scs
Reading file:  /pkg/xfab/XKIT/xh018/cadence/v8_0/spectre/v8_0_1/lpmos/models/mos/ped2_bjt.scs
Reading file:  /pkg/xfab/XKIT/xh018/cadence/v8_0/spectre/v8_0_1/lpmos/models/mos/ped.scs
Reading file:  /pkg/xfab/XKIT/xh018/cadence/v8_0/spectre/v8_0_1/lpmos/models/mos/ped_bjt.scs
Reading file:  /pkg/xfab/XKIT/xh018/cadence/v8_0/spectre/v8_0_1/lpmos/models/mos/nhv.scs
Reading file:  /pkg/xfab/XKIT/xh018/cadence/v8_0/spectre/v8_0_1/lpmos/models/mos/nhv_mos2.scs
Reading file:  /pkg/xfab/XKIT/xh018/cadence/v8_0/spectre/v8_0_1/lpmos/models/mos/nhv_bjt.scs
Reading file:  /pkg/xfab/XKIT/xh018/cadence/v8_0/spectre/v8_0_1/lpmos/models/mos/nhhv.scs
Reading file:  /pkg/xfab/XKIT/xh018/cadence/v8_0/spectre/v8_0_1/lpmos/models/mos/nhhv_mos2.scs
Reading file:  /pkg/xfab/XKIT/xh018/cadence/v8_0/spectre/v8_0_1/lpmos/models/mos/nhhv_bjt.scs
Reading file:  /pkg/xfab/XKIT/xh018/cadence/v8_0/spectre/v8_0_1/lpmos/models/mos/nmmc.scs
Reading file:  /pkg/xfab/XKIT/xh018/cadence/v8_0/spectre/v8_0_1/lpmos/models/mos/nmmc_mos2.scs
Reading file:  /pkg/xfab/XKIT/xh018/cadence/v8_0/spectre/v8_0_1/lpmos/models/mos/nmmc_bjt.scs
Reading file:  /pkg/xfab/XKIT/xh018/cadence/v8_0/spectre/v8_0_1/lpmos/models/mos/nmmd.scs
Reading file:  /pkg/xfab/XKIT/xh018/cadence/v8_0/spectre/v8_0_1/lpmos/models/mos/nmmd_mos2.scs
Reading file:  /pkg/xfab/XKIT/xh018/cadence/v8_0/spectre/v8_0_1/lpmos/models/mos/nmmd_bjt.scs
Reading file:  /pkg/xfab/XKIT/xh018/cadence/v8_0/spectre/v8_0_1/lpmos/models/mos/nmc.scs
Reading file:  /pkg/xfab/XKIT/xh018/cadence/v8_0/spectre/v8_0_1/lpmos/models/mos/nmc_mos2.scs
Reading file:  /pkg/xfab/XKIT/xh018/cadence/v8_0/spectre/v8_0_1/lpmos/models/mos/nmc_bjt.scs
Reading file:  /pkg/xfab/XKIT/xh018/cadence/v8_0/spectre/v8_0_1/lpmos/models/mos/nma.scs
Reading file:  /pkg/xfab/XKIT/xh018/cadence/v8_0/spectre/v8_0_1/lpmos/models/mos/nma_bjt.scs
Reading file:  /pkg/xfab/XKIT/xh018/cadence/v8_0/spectre/v8_0_1/lpmos/models/mos/phv.scs
Reading file:  /pkg/xfab/XKIT/xh018/cadence/v8_0/spectre/v8_0_1/lpmos/models/mos/phv_mos2.scs
Reading file:  /pkg/xfab/XKIT/xh018/cadence/v8_0/spectre/v8_0_1/lpmos/models/mos/phv_bjt.scs
Reading file:  /pkg/xfab/XKIT/xh018/cadence/v8_0/spectre/v8_0_1/lpmos/models/mos/phhv.scs
Reading file:  /pkg/xfab/XKIT/xh018/cadence/v8_0/spectre/v8_0_1/lpmos/models/mos/phhv_mos2.scs
Reading file:  /pkg/xfab/XKIT/xh018/cadence/v8_0/spectre/v8_0_1/lpmos/models/mos/phhv_bjt.scs
Reading file:  /pkg/xfab/XKIT/xh018/cadence/v8_0/spectre/v8_0_1/lpmos/models/mos/pmc.scs
Reading file:  /pkg/xfab/XKIT/xh018/cadence/v8_0/spectre/v8_0_1/lpmos/models/mos/pmc_mos2.scs
Reading file:  /pkg/xfab/XKIT/xh018/cadence/v8_0/spectre/v8_0_1/lpmos/models/mos/pmc_bjt.scs
Reading file:  /pkg/xfab/XKIT/xh018/cadence/v8_0/spectre/v8_0_1/lpmos/models/mos/pmmc.scs
Reading file:  /pkg/xfab/XKIT/xh018/cadence/v8_0/spectre/v8_0_1/lpmos/models/mos/pmmc_mos2.scs
Reading file:  /pkg/xfab/XKIT/xh018/cadence/v8_0/spectre/v8_0_1/lpmos/models/mos/pmmc_bjt.scs
Reading file:  /pkg/xfab/XKIT/xh018/cadence/v8_0/spectre/v8_0_1/lpmos/models/mos/pma.scs
Reading file:  /pkg/xfab/XKIT/xh018/cadence/v8_0/spectre/v8_0_1/lpmos/models/mos/pma_bjt.scs
Reading file:  /pkg/xfab/XKIT/xh018/cadence/v8_0/spectre/v8_0_1/lpmos/models/mos/pmb.scs
Reading file:  /pkg/xfab/XKIT/xh018/cadence/v8_0/spectre/v8_0_1/lpmos/models/mos/nesvt.scs
Reading file:  /pkg/xfab/XKIT/xh018/cadence/v8_0/spectre/v8_0_1/lpmos/models/mos/nesvti.scs
Reading file:  /pkg/xfab/XKIT/xh018/cadence/v8_0/spectre/v8_0_1/lpmos/models/mos/nesvti_6.scs
Reading file:  /pkg/xfab/XKIT/xh018/cadence/v8_0/spectre/v8_0_1/lpmos/models/mos/nesvti_m_6.scs
Reading file:  /pkg/xfab/XKIT/xh018/cadence/v8_0/spectre/v8_0_1/lpmos/models/mos/pesvt.scs
Reading file:  /pkg/xfab/XKIT/xh018/cadence/v8_0/spectre/v8_0_1/lpmos/models/mos/pesvt_5.scs
Reading file:  /pkg/xfab/XKIT/xh018/cadence/v8_0/spectre/v8_0_1/lpmos/models/mos/pesvti.scs
Reading file:  /pkg/xfab/XKIT/xh018/cadence/v8_0/spectre/v8_0_1/lpmos/models/mos/pesvti_5.scs
Reading file:  /pkg/xfab/XKIT/xh018/cadence/v8_0/spectre/v8_0_1/lpmos/models/mos/pesvti_m_5.scs
Reading file:  /pkg/xfab/XKIT/xh018/cadence/v8_0/spectre/v8_0_1/lpmos/models/mos/nhvd.scs
Reading file:  /pkg/xfab/XKIT/xh018/cadence/v8_0/spectre/v8_0_1/lpmos/models/mos/nhvd_bjt.scs
Reading file:  /pkg/xfab/XKIT/xh018/cadence/v8_0/spectre/v8_0_1/lpmos/models/mos/nhhvd.scs
Reading file:  /pkg/xfab/XKIT/xh018/cadence/v8_0/spectre/v8_0_1/lpmos/models/mos/nhhvd_bjt.scs
Reading file:  /pkg/xfab/XKIT/xh018/cadence/v8_0/spectre/v8_0_1/lpmos/photo.scs
Reading file:  /pkg/xfab/XKIT/xh018/cadence/v8_0/spectre/v8_0_1/lpmos/models/photo/tm_pho.scs
Reading file:  /pkg/xfab/XKIT/xh018/cadence/v8_0/spectre/v8_0_1/lpmos/models/photo/dphoa.scs
Reading file:  /pkg/xfab/XKIT/xh018/cadence/v8_0/spectre/v8_0_1/lpmos/models/photo/dpho.va
Reading link:  /pkg/cadence/installs/SPECTRE181/tools.lnx86/spectre/etc/ahdl/constants.h
Reading file:  /pkg/cadence/installs/SPECTRE181/tools.lnx86/spectre/etc/ahdl/constants.vams
Reading link:  /pkg/cadence/installs/SPECTRE181/tools.lnx86/spectre/etc/ahdl/discipline.h
Reading file:  /pkg/cadence/installs/SPECTRE181/tools.lnx86/spectre/etc/ahdl/disciplines.vams
Reading file:  /pkg/xfab/XKIT/xh018/cadence/v8_0/spectre/v8_0_1/lpmos/models/photo/dphob.scs
Reading file:  /pkg/xfab/XKIT/xh018/cadence/v8_0/spectre/v8_0_1/lpmos/models/photo/dphoc.scs
Reading file:  /pkg/xfab/XKIT/xh018/cadence/v8_0/spectre/v8_0_1/lpmos/models/photo/iphoto_uv.va
Reading file:  /pkg/xfab/XKIT/xh018/cadence/v8_0/spectre/v8_0_1/lpmos/models/photo/dphoc_cat.scs
Reading file:  /pkg/xfab/XKIT/xh018/cadence/v8_0/spectre/v8_0_1/lpmos/models/photo/dphoc0.scs
Reading file:  /pkg/xfab/XKIT/xh018/cadence/v8_0/spectre/v8_0_1/lpmos/models/photo/dphoc0_cat.scs
Reading file:  /pkg/xfab/XKIT/xh018/cadence/v8_0/spectre/v8_0_1/lpmos/models/photo/dphocfp.scs
Reading file:  /pkg/xfab/XKIT/xh018/cadence/v8_0/spectre/v8_0_1/lpmos/models/photo/dphocfp_cat.scs
Reading file:  /pkg/xfab/XKIT/xh018/cadence/v8_0/spectre/v8_0_1/lpmos/models/photo/dphod.scs
Reading file:  /pkg/xfab/XKIT/xh018/cadence/v8_0/spectre/v8_0_1/lpmos/models/photo/dphod_an1.scs
Reading file:  /pkg/xfab/XKIT/xh018/cadence/v8_0/spectre/v8_0_1/lpmos/models/photo/dphod_an2.scs
Reading file:  /pkg/xfab/XKIT/xh018/cadence/v8_0/spectre/v8_0_1/lpmos/models/photo/dphod0.scs
Reading file:  /pkg/xfab/XKIT/xh018/cadence/v8_0/spectre/v8_0_1/lpmos/models/photo/dphod0_an1.scs
Reading file:  /pkg/xfab/XKIT/xh018/cadence/v8_0/spectre/v8_0_1/lpmos/models/photo/dphod0_an2.scs
Reading file:  /pkg/xfab/XKIT/xh018/cadence/v8_0/spectre/v8_0_1/lpmos/models/photo/dphodfp.scs
Reading file:  /pkg/xfab/XKIT/xh018/cadence/v8_0/spectre/v8_0_1/lpmos/models/photo/dphodfp_an1.scs
Reading file:  /pkg/xfab/XKIT/xh018/cadence/v8_0/spectre/v8_0_1/lpmos/models/photo/dphodfp_an2.scs
Reading file:  /pkg/xfab/XKIT/xh018/cadence/v8_0/spectre/v8_0_1/lpmos/models/photo/dspada.scs
Reading file:  /pkg/xfab/XKIT/xh018/cadence/v8_0/spectre/v8_0_1/lpmos/models/photo/ispad.va
Reading file:  /pkg/xfab/XKIT/xh018/cadence/v8_0/spectre/v8_0_1/lpmos/models/photo/dspada_cat.scs
Reading file:  /pkg/xfab/XKIT/xh018/cadence/v8_0/spectre/v8_0_1/lpmos/models/photo/dspada0.scs
Reading file:  /pkg/xfab/XKIT/xh018/cadence/v8_0/spectre/v8_0_1/lpmos/models/photo/dapda.scs
Reading file:  /pkg/xfab/XKIT/xh018/cadence/v8_0/spectre/v8_0_1/lpmos/models/photo/iphoto_apd.va
Reading file:  /pkg/xfab/XKIT/xh018/cadence/v8_0/spectre/v8_0_1/lpmos/models/photo/dapda_cat.scs
Reading file:  /pkg/xfab/XKIT/xh018/cadence/v8_0/spectre/v8_0_1/lpmos/models/photo/dapda0.scs
Reading file:  /pkg/xfab/XKIT/xh018/cadence/v8_0/spectre/v8_0_1/lpmos/res.scs
Reading file:  /pkg/xfab/XKIT/xh018/cadence/v8_0/spectre/v8_0_1/lpmos/models/res/tm_res.scs
Reading file:  /pkg/xfab/XKIT/xh018/cadence/v8_0/spectre/v8_0_1/lpmos/models/res/rdn.scs
Reading file:  /pkg/xfab/XKIT/xh018/cadence/v8_0/spectre/v8_0_1/lpmos/models/res/rdn_esd.scs
Reading file:  /pkg/xfab/XKIT/xh018/cadence/v8_0/spectre/v8_0_1/lpmos/models/res/rdp.scs
Reading file:  /pkg/xfab/XKIT/xh018/cadence/v8_0/spectre/v8_0_1/lpmos/models/res/rdp_io.scs
Reading file:  /pkg/xfab/XKIT/xh018/cadence/v8_0/spectre/v8_0_1/lpmos/models/res/rdp_esd.scs
Reading file:  /pkg/xfab/XKIT/xh018/cadence/v8_0/spectre/v8_0_1/lpmos/models/res/rnw.scs
Reading file:  /pkg/xfab/XKIT/xh018/cadence/v8_0/spectre/v8_0_1/lpmos/models/res/rnw_scr.scs
Reading file:  /pkg/xfab/XKIT/xh018/cadence/v8_0/spectre/v8_0_1/lpmos/models/res/rdn3.scs
Reading file:  /pkg/xfab/XKIT/xh018/cadence/v8_0/spectre/v8_0_1/lpmos/models/res/rdp3.scs
Reading file:  /pkg/xfab/XKIT/xh018/cadence/v8_0/spectre/v8_0_1/lpmos/models/res/rnw3.scs
Reading file:  /pkg/xfab/XKIT/xh018/cadence/v8_0/spectre/v8_0_1/lpmos/models/res/rnw3_scr.scs
Reading file:  /pkg/xfab/XKIT/xh018/cadence/v8_0/spectre/v8_0_1/lpmos/models/res/rdnwmv.scs
Reading file:  /pkg/xfab/XKIT/xh018/cadence/v8_0/spectre/v8_0_1/lpmos/models/res/rnp1.scs
Reading file:  /pkg/xfab/XKIT/xh018/cadence/v8_0/spectre/v8_0_1/lpmos/models/res/rnp1_3.scs
Reading file:  /pkg/xfab/XKIT/xh018/cadence/v8_0/spectre/v8_0_1/lpmos/models/res/rpp1.scs
Reading file:  /pkg/xfab/XKIT/xh018/cadence/v8_0/spectre/v8_0_1/lpmos/models/res/rpp1_3.scs
Reading file:  /pkg/xfab/XKIT/xh018/cadence/v8_0/spectre/v8_0_1/lpmos/models/res/rpp1s.scs
Reading file:  /pkg/xfab/XKIT/xh018/cadence/v8_0/spectre/v8_0_1/lpmos/models/res/rpp1s_3.scs
Reading file:  /pkg/xfab/XKIT/xh018/cadence/v8_0/spectre/v8_0_1/lpmos/models/res/rnp1h.scs
Reading file:  /pkg/xfab/XKIT/xh018/cadence/v8_0/spectre/v8_0_1/lpmos/models/res/rnp1h_3.scs
Reading file:  /pkg/xfab/XKIT/xh018/cadence/v8_0/spectre/v8_0_1/lpmos/models/res/rpp1k1.scs
Reading file:  /pkg/xfab/XKIT/xh018/cadence/v8_0/spectre/v8_0_1/lpmos/models/res/rpp1k1_3.scs
Reading file:  /pkg/xfab/XKIT/xh018/cadence/v8_0/spectre/v8_0_1/lpmos/models/res/rctdn.scs
Reading file:  /pkg/xfab/XKIT/xh018/cadence/v8_0/spectre/v8_0_1/lpmos/models/res/rctdp.scs
Reading file:  /pkg/xfab/XKIT/xh018/cadence/v8_0/spectre/v8_0_1/lpmos/models/res/rctp1.scs
Reading file:  /pkg/xfab/XKIT/xh018/cadence/v8_0/spectre/v8_0_1/lpmos/models/res/rsildn.scs
Reading file:  /pkg/xfab/XKIT/xh018/cadence/v8_0/spectre/v8_0_1/lpmos/models/res/rsildp.scs
Reading file:  /pkg/xfab/XKIT/xh018/cadence/v8_0/spectre/v8_0_1/lpmos/models/res/rsilnp1.scs
Reading file:  /pkg/xfab/XKIT/xh018/cadence/v8_0/spectre/v8_0_1/lpmos/models/res/rsilpp1.scs
Reading file:  /pkg/xfab/XKIT/xh018/cadence/v8_0/spectre/v8_0_1/lpmos/models/res/rsbdn.scs
Reading file:  /pkg/xfab/XKIT/xh018/cadence/v8_0/spectre/v8_0_1/lpmos/models/res/rsbdp.scs
Reading file:  /pkg/xfab/XKIT/xh018/cadence/v8_0/spectre/v8_0_1/lpmos/models/res/rsbdn3.scs
Reading file:  /pkg/xfab/XKIT/xh018/cadence/v8_0/spectre/v8_0_1/lpmos/models/res/rsbdp3.scs
Reading file:  /pkg/xfab/XKIT/xh018/cadence/v8_0/spectre/v8_0_1/lpmos/models/res/rsbnp1.scs
Reading file:  /pkg/xfab/XKIT/xh018/cadence/v8_0/spectre/v8_0_1/lpmos/models/res/rsbpp1.scs
Reading file:  /pkg/xfab/XKIT/xh018/cadence/v8_0/spectre/v8_0_1/lpmos/models/res/rsbpp1k1.scs
Reading file:  /pkg/xfab/XKIT/xh018/cadence/v8_0/spectre/v8_0_1/lpmos/models/res/rm1.scs
Reading file:  /pkg/xfab/XKIT/xh018/cadence/v8_0/spectre/v8_0_1/lpmos/models/res/rm2.scs
Reading file:  /pkg/xfab/XKIT/xh018/cadence/v8_0/spectre/v8_0_1/lpmos/models/res/rm3.scs
Reading file:  /pkg/xfab/XKIT/xh018/cadence/v8_0/spectre/v8_0_1/lpmos/models/res/rm4.scs
Reading file:  /pkg/xfab/XKIT/xh018/cadence/v8_0/spectre/v8_0_1/lpmos/models/res/rm5.scs
Reading file:  /pkg/xfab/XKIT/xh018/cadence/v8_0/spectre/v8_0_1/lpmos/models/res/rmtp.scs
Reading file:  /pkg/xfab/XKIT/xh018/cadence/v8_0/spectre/v8_0_1/lpmos/models/res/rmtpl.scs
Reading file:  /pkg/xfab/XKIT/xh018/cadence/v8_0/spectre/v8_0_1/lpmos/models/res/pfuse.scs
Reading file:  /pkg/xfab/XKIT/xh018/cadence/v8_0/spectre/v8_0_1/lpmos/models/res/s_res.scs
Time for NDB Parsing: CPU = 411.439 ms, elapsed = 506.681 ms.
Time accumulated: CPU = 481.781 ms, elapsed = 506.695 ms.
Peak resident memory used = 68.2 Mbytes.

Time for Elaboration: CPU = 37.523 ms, elapsed = 37.5271 ms.
Time accumulated: CPU = 519.461 ms, elapsed = 544.377 ms.
Peak resident memory used = 77.7 Mbytes.


Warning from spectre during hierarchy flattening.
    WARNING (SPECTRE-17101): The value 'psf' specified using the 'checklimitdest' option will no longer be supported in future releases.


Time for EDB Visiting: CPU = 2.402 ms, elapsed = 2.40207 ms.
Time accumulated: CPU = 522.037 ms, elapsed = 546.952 ms.
Peak resident memory used = 78.6 Mbytes.


Global user options:
         psfversion = 1.1.0
            vabstol = 1e-06
            iabstol = 1e-12
               temp = 27
           homotopy = 7
              limit = delta
         compatible = spice2
               gmin = 1e-12
             rforce = 1
           maxnotes = 5
           maxwarns = 5
             digits = 5
               cols = 80
             pivrel = 0.001
           sensfile = ../psf/sens.output
     checklimitdest = psf
               save = allpub
             reltol = 0.0001
               tnom = 27
             scalem = 1
              scale = 1

Scoped user options:

Circuit inventory:
              nodes 35
            bsim3v3 23    
          capacitor 8     
             iprobe 4     
            isource 5     
           resistor 14    
            vsource 5     

Analysis and control statement inventory:
                 ac 1     
                 dc 1     
               info 7     

Output statements:
             .probe 0     
           .measure 0     
               save 1     

Time for parsing: CPU = 4.758 ms, elapsed = 9.13 ms.
Time accumulated: CPU = 526.924 ms, elapsed = 556.211 ms.
Peak resident memory used = 80.4 Mbytes.

~~~~~~~~~~~~~~~~~~~~~~
Pre-Simulation Summary
~~~~~~~~~~~~~~~~~~~~~~
~~~~~~~~~~~~~~~~~~~~~~

******************
DC Analysis `dcOp'
******************

Opening the PSF file ../psf/dcOp.dc ...
Important parameter values:
    reltol = 100e-06
    abstol(V) = 1 uV
    abstol(I) = 1 pA
    temp = 27 C
    tnom = 27 C
    tempeffects = all
    gmindc = 1 pS

Notice from spectre during DC analysis `dcOp'.
    GminDC = 1 pS is large enough to noticeably affect the DC solution.
        dV(M29.m1:int_d) = -14.0951 mV
        Use the `gmin_check' option to eliminate or expand this report.


Maximum value achieved for any signal of each quantity: 
V: V(VDDA) = 1.8 V
I: I(V4:p) = 8.163 uA
Convergence achieved in 16 iterations.
DC simulation time: CPU = 5.464 ms, elapsed = 7.89499 ms.
Total time required for dc analysis `dcOp': CPU = 5.554 ms, elapsed = 7.98011 ms.
Time accumulated: CPU = 540.68 ms, elapsed = 572.396 ms.
Peak resident memory used = 81.8 Mbytes.

dcOpInfo: writing operating point information to rawfile.

Opening the PSF file ../psf/dcOpInfo.info ...

*******************************************
AC Analysis `ac': freq = (1 mHz -> 100 MHz)
*******************************************

Notice from spectre during AC analysis `ac'.
    Operating points will not be recomputed: the circuit and conditions were not changed since previous analysis.


Opening the PSF file ../psf/ac.ac ...
    ac: freq = 1.995 mHz   (2.73 %), step = 217 uHz      (455 m%)
    ac: freq = 2.239 mHz   (3.18 %), step = 243.5 uHz    (455 m%)
    ac: freq = 2.512 mHz   (3.64 %), step = 273.2 uHz    (455 m%)
    ac: freq = 2.818 mHz   (4.09 %), step = 306.5 uHz    (455 m%)
    ac: freq = 3.162 mHz   (4.55 %), step = 343.9 uHz    (455 m%)
    ac: freq = 3.548 mHz      (5 %), step = 385.9 uHz    (455 m%)
    ac: freq = 3.981 mHz   (5.45 %), step = 432.9 uHz    (455 m%)
    ac: freq = 4.467 mHz   (5.91 %), step = 485.8 uHz    (455 m%)
    ac: freq = 5.012 mHz   (6.36 %), step = 545 uHz      (455 m%)
    ac: freq = 5.623 mHz   (6.82 %), step = 611.5 uHz    (455 m%)
    ac: freq = 6.31 mHz    (7.27 %), step = 686.2 uHz    (455 m%)
    ac: freq = 7.079 mHz   (7.73 %), step = 769.9 uHz    (455 m%)
    ac: freq = 7.943 mHz   (8.18 %), step = 863.8 uHz    (455 m%)
    ac: freq = 8.913 mHz   (8.64 %), step = 969.2 uHz    (455 m%)
    ac: freq = 10 mHz      (9.09 %), step = 1.087 mHz    (455 m%)
    ac: freq = 11.22 mHz   (9.55 %), step = 1.22 mHz     (455 m%)
    ac: freq = 12.59 mHz     (10 %), step = 1.369 mHz    (455 m%)
    ac: freq = 14.13 mHz   (10.5 %), step = 1.536 mHz    (455 m%)
    ac: freq = 15.85 mHz   (10.9 %), step = 1.724 mHz    (455 m%)
    ac: freq = 17.78 mHz   (11.4 %), step = 1.934 mHz    (455 m%)
    ac: freq = 19.95 mHz   (11.8 %), step = 2.17 mHz     (455 m%)
    ac: freq = 22.39 mHz   (12.3 %), step = 2.435 mHz    (455 m%)
    ac: freq = 25.12 mHz   (12.7 %), step = 2.732 mHz    (455 m%)
    ac: freq = 28.18 mHz   (13.2 %), step = 3.065 mHz    (455 m%)
    ac: freq = 31.62 mHz   (13.6 %), step = 3.439 mHz    (455 m%)
    ac: freq = 35.48 mHz   (14.1 %), step = 3.859 mHz    (455 m%)
    ac: freq = 39.81 mHz   (14.5 %), step = 4.329 mHz    (455 m%)
    ac: freq = 44.67 mHz     (15 %), step = 4.858 mHz    (455 m%)
    ac: freq = 50.12 mHz   (15.5 %), step = 5.45 mHz     (455 m%)
    ac: freq = 56.23 mHz   (15.9 %), step = 6.115 mHz    (455 m%)
    ac: freq = 63.1 mHz    (16.4 %), step = 6.862 mHz    (455 m%)
    ac: freq = 70.79 mHz   (16.8 %), step = 7.699 mHz    (455 m%)
    ac: freq = 79.43 mHz   (17.3 %), step = 8.638 mHz    (455 m%)
    ac: freq = 89.13 mHz   (17.7 %), step = 9.692 mHz    (455 m%)
    ac: freq = 100 mHz     (18.2 %), step = 10.87 mHz    (455 m%)
    ac: freq = 112.2 mHz   (18.6 %), step = 12.2 mHz     (455 m%)
    ac: freq = 125.9 mHz   (19.1 %), step = 13.69 mHz    (455 m%)
    ac: freq = 141.3 mHz   (19.5 %), step = 15.36 mHz    (455 m%)
    ac: freq = 158.5 mHz     (20 %), step = 17.24 mHz    (455 m%)
    ac: freq = 177.8 mHz   (20.5 %), step = 19.34 mHz    (455 m%)
    ac: freq = 199.5 mHz   (20.9 %), step = 21.7 mHz     (455 m%)
    ac: freq = 223.9 mHz   (21.4 %), step = 24.35 mHz    (455 m%)
    ac: freq = 251.2 mHz   (21.8 %), step = 27.32 mHz    (455 m%)
    ac: freq = 281.8 mHz   (22.3 %), step = 30.65 mHz    (455 m%)
    ac: freq = 316.2 mHz   (22.7 %), step = 34.39 mHz    (455 m%)
    ac: freq = 354.8 mHz   (23.2 %), step = 38.59 mHz    (455 m%)
    ac: freq = 398.1 mHz   (23.6 %), step = 43.29 mHz    (455 m%)
    ac: freq = 446.7 mHz   (24.1 %), step = 48.58 mHz    (455 m%)
    ac: freq = 501.2 mHz   (24.5 %), step = 54.5 mHz     (455 m%)
    ac: freq = 562.3 mHz     (25 %), step = 61.15 mHz    (455 m%)
    ac: freq = 631 mHz     (25.5 %), step = 68.62 mHz    (455 m%)
    ac: freq = 707.9 mHz   (25.9 %), step = 76.99 mHz    (455 m%)
    ac: freq = 794.3 mHz   (26.4 %), step = 86.38 mHz    (455 m%)
    ac: freq = 891.3 mHz   (26.8 %), step = 96.92 mHz    (455 m%)
    ac: freq = 1 Hz        (27.3 %), step = 108.7 mHz    (455 m%)
    ac: freq = 1.122 Hz    (27.7 %), step = 122 mHz      (455 m%)
    ac: freq = 1.259 Hz    (28.2 %), step = 136.9 mHz    (455 m%)
    ac: freq = 1.413 Hz    (28.6 %), step = 153.6 mHz    (455 m%)
    ac: freq = 1.585 Hz    (29.1 %), step = 172.4 mHz    (455 m%)
    ac: freq = 1.778 Hz    (29.5 %), step = 193.4 mHz    (455 m%)
    ac: freq = 1.995 Hz      (30 %), step = 217 mHz      (455 m%)
    ac: freq = 2.239 Hz    (30.5 %), step = 243.5 mHz    (455 m%)
    ac: freq = 2.512 Hz    (30.9 %), step = 273.2 mHz    (455 m%)
    ac: freq = 2.818 Hz    (31.4 %), step = 306.5 mHz    (455 m%)
    ac: freq = 3.162 Hz    (31.8 %), step = 343.9 mHz    (455 m%)
    ac: freq = 3.548 Hz    (32.3 %), step = 385.9 mHz    (455 m%)
    ac: freq = 3.981 Hz    (32.7 %), step = 432.9 mHz    (455 m%)
    ac: freq = 4.467 Hz    (33.2 %), step = 485.8 mHz    (455 m%)
    ac: freq = 5.012 Hz    (33.6 %), step = 545 mHz      (455 m%)
    ac: freq = 5.623 Hz    (34.1 %), step = 611.5 mHz    (455 m%)
    ac: freq = 6.31 Hz     (34.5 %), step = 686.2 mHz    (455 m%)
    ac: freq = 7.079 Hz      (35 %), step = 769.9 mHz    (455 m%)
    ac: freq = 7.943 Hz    (35.5 %), step = 863.8 mHz    (455 m%)
    ac: freq = 8.913 Hz    (35.9 %), step = 969.2 mHz    (455 m%)
    ac: freq = 10 Hz       (36.4 %), step = 1.087 Hz     (455 m%)
    ac: freq = 11.22 Hz    (36.8 %), step = 1.22 Hz      (455 m%)
    ac: freq = 12.59 Hz    (37.3 %), step = 1.369 Hz     (455 m%)
    ac: freq = 14.13 Hz    (37.7 %), step = 1.536 Hz     (455 m%)
    ac: freq = 15.85 Hz    (38.2 %), step = 1.724 Hz     (455 m%)
    ac: freq = 17.78 Hz    (38.6 %), step = 1.934 Hz     (455 m%)
    ac: freq = 19.95 Hz    (39.1 %), step = 2.17 Hz      (455 m%)
    ac: freq = 22.39 Hz    (39.5 %), step = 2.435 Hz     (455 m%)
    ac: freq = 25.12 Hz      (40 %), step = 2.732 Hz     (455 m%)
    ac: freq = 28.18 Hz    (40.5 %), step = 3.065 Hz     (455 m%)
    ac: freq = 31.62 Hz    (40.9 %), step = 3.439 Hz     (455 m%)
    ac: freq = 35.48 Hz    (41.4 %), step = 3.859 Hz     (455 m%)
    ac: freq = 39.81 Hz    (41.8 %), step = 4.329 Hz     (455 m%)
    ac: freq = 44.67 Hz    (42.3 %), step = 4.858 Hz     (455 m%)
    ac: freq = 50.12 Hz    (42.7 %), step = 5.45 Hz      (455 m%)
    ac: freq = 56.23 Hz    (43.2 %), step = 6.115 Hz     (455 m%)
    ac: freq = 63.1 Hz     (43.6 %), step = 6.862 Hz     (455 m%)
    ac: freq = 70.79 Hz    (44.1 %), step = 7.699 Hz     (455 m%)
    ac: freq = 79.43 Hz    (44.5 %), step = 8.638 Hz     (455 m%)
    ac: freq = 89.13 Hz      (45 %), step = 9.692 Hz     (455 m%)
    ac: freq = 100 Hz      (45.5 %), step = 10.87 Hz     (455 m%)
    ac: freq = 112.2 Hz    (45.9 %), step = 12.2 Hz      (455 m%)
    ac: freq = 125.9 Hz    (46.4 %), step = 13.69 Hz     (455 m%)
    ac: freq = 141.3 Hz    (46.8 %), step = 15.36 Hz     (455 m%)
    ac: freq = 158.5 Hz    (47.3 %), step = 17.24 Hz     (455 m%)
    ac: freq = 177.8 Hz    (47.7 %), step = 19.34 Hz     (455 m%)
    ac: freq = 199.5 Hz    (48.2 %), step = 21.7 Hz      (455 m%)
    ac: freq = 223.9 Hz    (48.6 %), step = 24.35 Hz     (455 m%)
    ac: freq = 251.2 Hz    (49.1 %), step = 27.32 Hz     (455 m%)
    ac: freq = 281.8 Hz    (49.5 %), step = 30.65 Hz     (455 m%)
    ac: freq = 316.2 Hz      (50 %), step = 34.39 Hz     (455 m%)
    ac: freq = 354.8 Hz    (50.5 %), step = 38.59 Hz     (455 m%)
    ac: freq = 398.1 Hz    (50.9 %), step = 43.29 Hz     (455 m%)
    ac: freq = 446.7 Hz    (51.4 %), step = 48.58 Hz     (455 m%)
    ac: freq = 501.2 Hz    (51.8 %), step = 54.5 Hz      (455 m%)
    ac: freq = 562.3 Hz    (52.3 %), step = 61.15 Hz     (455 m%)
    ac: freq = 631 Hz      (52.7 %), step = 68.62 Hz     (455 m%)
    ac: freq = 707.9 Hz    (53.2 %), step = 76.99 Hz     (455 m%)
    ac: freq = 794.3 Hz    (53.6 %), step = 86.38 Hz     (455 m%)
    ac: freq = 891.3 Hz    (54.1 %), step = 96.92 Hz     (455 m%)
    ac: freq = 1 kHz       (54.5 %), step = 108.7 Hz     (455 m%)
    ac: freq = 1.122 kHz     (55 %), step = 122 Hz       (455 m%)
    ac: freq = 1.259 kHz   (55.5 %), step = 136.9 Hz     (455 m%)
    ac: freq = 1.413 kHz   (55.9 %), step = 153.6 Hz     (455 m%)
    ac: freq = 1.585 kHz   (56.4 %), step = 172.4 Hz     (455 m%)
    ac: freq = 1.778 kHz   (56.8 %), step = 193.4 Hz     (455 m%)
    ac: freq = 1.995 kHz   (57.3 %), step = 217 Hz       (455 m%)
    ac: freq = 2.239 kHz   (57.7 %), step = 243.5 Hz     (455 m%)
    ac: freq = 2.512 kHz   (58.2 %), step = 273.2 Hz     (455 m%)
    ac: freq = 2.818 kHz   (58.6 %), step = 306.5 Hz     (455 m%)
    ac: freq = 3.162 kHz   (59.1 %), step = 343.9 Hz     (455 m%)
    ac: freq = 3.548 kHz   (59.5 %), step = 385.9 Hz     (455 m%)
    ac: freq = 3.981 kHz     (60 %), step = 432.9 Hz     (455 m%)
    ac: freq = 4.467 kHz   (60.5 %), step = 485.8 Hz     (455 m%)
    ac: freq = 5.012 kHz   (60.9 %), step = 545 Hz       (455 m%)
    ac: freq = 5.623 kHz   (61.4 %), step = 611.5 Hz     (455 m%)
    ac: freq = 6.31 kHz    (61.8 %), step = 686.2 Hz     (455 m%)
    ac: freq = 7.079 kHz   (62.3 %), step = 769.9 Hz     (455 m%)
    ac: freq = 7.943 kHz   (62.7 %), step = 863.8 Hz     (455 m%)
    ac: freq = 8.913 kHz   (63.2 %), step = 969.2 Hz     (455 m%)
    ac: freq = 10 kHz      (63.6 %), step = 1.087 kHz    (455 m%)
    ac: freq = 11.22 kHz   (64.1 %), step = 1.22 kHz     (455 m%)
    ac: freq = 12.59 kHz   (64.5 %), step = 1.369 kHz    (455 m%)
    ac: freq = 14.13 kHz     (65 %), step = 1.536 kHz    (455 m%)
    ac: freq = 15.85 kHz   (65.5 %), step = 1.724 kHz    (455 m%)
    ac: freq = 17.78 kHz   (65.9 %), step = 1.934 kHz    (455 m%)
    ac: freq = 19.95 kHz   (66.4 %), step = 2.17 kHz     (455 m%)
    ac: freq = 22.39 kHz   (66.8 %), step = 2.435 kHz    (455 m%)
    ac: freq = 25.12 kHz   (67.3 %), step = 2.732 kHz    (455 m%)
    ac: freq = 28.18 kHz   (67.7 %), step = 3.065 kHz    (455 m%)
    ac: freq = 31.62 kHz   (68.2 %), step = 3.439 kHz    (455 m%)
    ac: freq = 35.48 kHz   (68.6 %), step = 3.859 kHz    (455 m%)
    ac: freq = 39.81 kHz   (69.1 %), step = 4.329 kHz    (455 m%)
    ac: freq = 44.67 kHz   (69.5 %), step = 4.858 kHz    (455 m%)
    ac: freq = 50.12 kHz     (70 %), step = 5.45 kHz     (455 m%)
    ac: freq = 56.23 kHz   (70.5 %), step = 6.115 kHz    (455 m%)
    ac: freq = 63.1 kHz    (70.9 %), step = 6.862 kHz    (455 m%)
    ac: freq = 70.79 kHz   (71.4 %), step = 7.699 kHz    (455 m%)
    ac: freq = 79.43 kHz   (71.8 %), step = 8.638 kHz    (455 m%)
    ac: freq = 89.13 kHz   (72.3 %), step = 9.692 kHz    (455 m%)
    ac: freq = 100 kHz     (72.7 %), step = 10.87 kHz    (455 m%)
    ac: freq = 112.2 kHz   (73.2 %), step = 12.2 kHz     (455 m%)
    ac: freq = 125.9 kHz   (73.6 %), step = 13.69 kHz    (455 m%)
    ac: freq = 141.3 kHz   (74.1 %), step = 15.36 kHz    (455 m%)
    ac: freq = 158.5 kHz   (74.5 %), step = 17.24 kHz    (455 m%)
    ac: freq = 177.8 kHz     (75 %), step = 19.34 kHz    (455 m%)
    ac: freq = 199.5 kHz   (75.5 %), step = 21.7 kHz     (455 m%)
    ac: freq = 223.9 kHz   (75.9 %), step = 24.35 kHz    (455 m%)
    ac: freq = 251.2 kHz   (76.4 %), step = 27.32 kHz    (455 m%)
    ac: freq = 281.8 kHz   (76.8 %), step = 30.65 kHz    (455 m%)
    ac: freq = 316.2 kHz   (77.3 %), step = 34.39 kHz    (455 m%)
    ac: freq = 354.8 kHz   (77.7 %), step = 38.59 kHz    (455 m%)
    ac: freq = 398.1 kHz   (78.2 %), step = 43.29 kHz    (455 m%)
    ac: freq = 446.7 kHz   (78.6 %), step = 48.58 kHz    (455 m%)
    ac: freq = 501.2 kHz   (79.1 %), step = 54.5 kHz     (455 m%)
    ac: freq = 562.3 kHz   (79.5 %), step = 61.15 kHz    (455 m%)
    ac: freq = 631 kHz       (80 %), step = 68.62 kHz    (455 m%)
    ac: freq = 707.9 kHz   (80.5 %), step = 76.99 kHz    (455 m%)
    ac: freq = 794.3 kHz   (80.9 %), step = 86.38 kHz    (455 m%)
    ac: freq = 891.3 kHz   (81.4 %), step = 96.92 kHz    (455 m%)
    ac: freq = 1 MHz       (81.8 %), step = 108.7 kHz    (455 m%)
    ac: freq = 1.122 MHz   (82.3 %), step = 122 kHz      (455 m%)
    ac: freq = 1.259 MHz   (82.7 %), step = 136.9 kHz    (455 m%)
    ac: freq = 1.413 MHz   (83.2 %), step = 153.6 kHz    (455 m%)
    ac: freq = 1.585 MHz   (83.6 %), step = 172.4 kHz    (455 m%)
    ac: freq = 1.778 MHz   (84.1 %), step = 193.4 kHz    (455 m%)
    ac: freq = 1.995 MHz   (84.5 %), step = 217 kHz      (455 m%)
    ac: freq = 2.239 MHz     (85 %), step = 243.5 kHz    (455 m%)
    ac: freq = 2.512 MHz   (85.5 %), step = 273.2 kHz    (455 m%)
    ac: freq = 2.818 MHz   (85.9 %), step = 306.5 kHz    (455 m%)
    ac: freq = 3.162 MHz   (86.4 %), step = 343.9 kHz    (455 m%)
    ac: freq = 3.548 MHz   (86.8 %), step = 385.9 kHz    (455 m%)
    ac: freq = 3.981 MHz   (87.3 %), step = 432.9 kHz    (455 m%)
    ac: freq = 4.467 MHz   (87.7 %), step = 485.8 kHz    (455 m%)
    ac: freq = 5.012 MHz   (88.2 %), step = 545 kHz      (455 m%)
    ac: freq = 5.623 MHz   (88.6 %), step = 611.5 kHz    (455 m%)
    ac: freq = 6.31 MHz    (89.1 %), step = 686.2 kHz    (455 m%)
    ac: freq = 7.079 MHz   (89.5 %), step = 769.9 kHz    (455 m%)
    ac: freq = 7.943 MHz     (90 %), step = 863.8 kHz    (455 m%)
    ac: freq = 8.913 MHz   (90.5 %), step = 969.2 kHz    (455 m%)
    ac: freq = 10 MHz      (90.9 %), step = 1.087 MHz    (455 m%)
    ac: freq = 11.22 MHz   (91.4 %), step = 1.22 MHz     (455 m%)
    ac: freq = 12.59 MHz   (91.8 %), step = 1.369 MHz    (455 m%)
    ac: freq = 14.13 MHz   (92.3 %), step = 1.536 MHz    (455 m%)
    ac: freq = 15.85 MHz   (92.7 %), step = 1.724 MHz    (455 m%)
    ac: freq = 17.78 MHz   (93.2 %), step = 1.934 MHz    (455 m%)
    ac: freq = 19.95 MHz   (93.6 %), step = 2.17 MHz     (455 m%)
    ac: freq = 22.39 MHz   (94.1 %), step = 2.435 MHz    (455 m%)
    ac: freq = 25.12 MHz   (94.5 %), step = 2.732 MHz    (455 m%)
    ac: freq = 28.18 MHz     (95 %), step = 3.065 MHz    (455 m%)
    ac: freq = 31.62 MHz   (95.5 %), step = 3.439 MHz    (455 m%)
    ac: freq = 35.48 MHz   (95.9 %), step = 3.859 MHz    (455 m%)
    ac: freq = 39.81 MHz   (96.4 %), step = 4.329 MHz    (455 m%)
    ac: freq = 44.67 MHz   (96.8 %), step = 4.858 MHz    (455 m%)
    ac: freq = 50.12 MHz   (97.3 %), step = 5.45 MHz     (455 m%)
    ac: freq = 56.23 MHz   (97.7 %), step = 6.115 MHz    (455 m%)
    ac: freq = 63.1 MHz    (98.2 %), step = 6.862 MHz    (455 m%)
    ac: freq = 70.79 MHz   (98.6 %), step = 7.699 MHz    (455 m%)
    ac: freq = 79.43 MHz   (99.1 %), step = 8.638 MHz    (455 m%)
    ac: freq = 89.13 MHz   (99.5 %), step = 9.692 MHz    (455 m%)
    ac: freq = 100 MHz      (100 %), step = 10.87 MHz    (455 m%)
Accumulated DC solution time =            0 s.
Intrinsic ac analysis time =              0 s.
Total time required for ac analysis `ac': CPU = 33.222 ms, elapsed = 35.6729 ms.
Time accumulated: CPU = 579.773 ms, elapsed = 616.374 ms.
Peak resident memory used = 82.5 Mbytes.

modelParameter: writing model parameter values to rawfile.

Opening the PSF file ../psf/modelParameter.info ...
element: writing instance parameter values to rawfile.

Opening the PSF file ../psf/element.info ...
outputParameter: writing output parameter values to rawfile.

Opening the PSF file ../psf/outputParameter.info ...
designParamVals: writing netlist parameters to rawfile.

Opening the PSFASCII file ../psf/designParamVals.info ...
primitives: writing primitives to rawfile.

Opening the PSFASCII file ../psf/primitives.info.primitives ...
subckts: writing subcircuits to rawfile.

Opening the PSFASCII file ../psf/subckts.info.subckts ...

Aggregate audit (11:02:12 AM, Fri Oct 1, 2021):
Time used: CPU = 636 ms, elapsed = 696 ms, util. = 91.4%.
Time spent in licensing: elapsed = 24.5 ms.
Peak memory used = 83.5 Mbytes.
Simulation started at: 11:02:12 AM, Fri Oct 1, 2021, ended at: 11:02:12 AM, Fri Oct 1, 2021, with elapsed time (wall clock): 696 ms.
spectre completes with 0 errors, 1 warning, and 3 notices.


********* LOG ENDS **************
**                             **
