
Spectre (R) Circuit Simulator
Version 17.1.0.433.isr9 64bit -- 5 Nov 2018
Copyright (C) 1989-2018 Cadence Design Systems, Inc. All rights reserved worldwide. Cadence and Spectre are registered trademarks of Cadence Design Systems, Inc. All others are the property of their respective holders.

Includes RSA BSAFE(R) Cryptographic or Security Protocol Software from RSA Security, Inc.

User: ykhuang   Host: s2424   HostID: ED824314   PID: 12533
Memory  available: 14.8435 GB  physical: 67.2863 GB
Linux   : CentOS Linux release 7.9.2009 (Core)
CPU Type: Intel(R) Xeon(R) CPU E5-2630 v3 @ 2.40GHz
        Socket: Processors [Frequency] (Hyperthreaded Processor)
        0:       0 [1238.1] ( 16 ),  1 [1200.0] ( 17 ),  2 [1200.0] ( 18 )
                 3 [3186.6] ( 19 ),  4 [1200.0] ( 20 ),  5 [1200.6] ( 21 )
                 6 [1200.3] ( 22 ),  7 [1200.0] ( 23 )
        1:       8 [1201.6] ( 24 ),  9 [1278.2] ( 25 ), 10 [1203.5] ( 26 )
                11 [1266.1] ( 27 ), 12 [1496.5] ( 28 ), 13 [1200.0] ( 29 )
                14 [1207.9] ( 30 ), 15 [1200.4] ( 31 )
        
System load averages (1min, 5min, 15min) : 3.7 %, 4.0 %, 3.8 %
Hyperthreading is enabled


Simulating `/home/ykhuang/WorkingDir_XH018/Sim/MultiChannel_EMG_TestBench/MultiChannelAFE_TB_2/adexl/results/data/Interactive.7/1/MultiChannel_EMG_TestBench:MultiChannelAFE_TB_2:1/netlist/.mapi//xcelium.d/AMSD/ams_spice_in/./.amsspice_pre.ckt' on s2424 at 10:57:09 AM, Mon Oct 11, 2021 (process id: 12533).
Current working directory: /home/ykhuang/WorkingDir_XH018/Sim/MultiChannel_EMG_TestBench/MultiChannelAFE_TB_2/adexl/results/data/Interactive.7/1/MultiChannel_EMG_TestBench:MultiChannelAFE_TB_2:1/netlist
Environment variable:
    SPECTRE_DEFAULTS=
Command line:
    amsprimtool  \
        /home/ykhuang/WorkingDir_XH018/Sim/MultiChannel_EMG_TestBench/MultiChannelAFE_TB_2/adexl/results/data/Interactive.7/1/MultiChannel_EMG_TestBench:MultiChannelAFE_TB_2:1/netlist/.mapi//xcelium.d/AMSD/ams_spice_in/./.amsspice_pre.ckt  \
        -noraw -va,amsspice_pre -ahdllibdir  \
        /home/ykhuang/WorkingDir_XH018/Sim/MultiChannel_EMG_TestBench/MultiChannelAFE_TB_2/adexl/results/data/Interactive.7/1/MultiChannel_EMG_TestBench:MultiChannelAFE_TB_2:1/netlist/.mapi//xcelium.d/AMSD/ams_spice_in/ahdlSimDB  \
        =log  \
        /home/ykhuang/WorkingDir_XH018/Sim/MultiChannel_EMG_TestBench/MultiChannelAFE_TB_2/adexl/results/data/Interactive.7/1/MultiChannel_EMG_TestBench:MultiChannelAFE_TB_2:1/netlist/.mapi//xcelium.d/AMSD/ams_spice_in/./.amsspice_pre.ckt.log  \
        -token  \
        0001AF26C83A239465DFBB2CC00A229E73C4B63DFD3B60CB2080E838B83335D47FDDA126F37837D471DEB338DD1737BF79DEBF55B57661C35880EE1DB70325973FFD8A3BF7303E9E71DEAA2FD506049E57EF843BF66738D47ED3AD0AC828389A79F38C17C60D15A451F6D86EDD1B349E3FD1E23CE03C259775C3E62DF86031D471C4AE39C726338F62D1FA3CB56561D4279FAD0AC828389A79F39214CE151DBC4FF5B90CD706359564F2E71CFA3D249265DCA736C2153CBA7ED5B536994362C152EFB234B560398864DCE720F03C39D471C0A731B72925967CD9CA2F877714D45DE3A812E532399863C0EE7DA74D7FD53F9EAB27EF34339E60D9F43BD9383B8F3ED3A86EAE6F33CB73D3983D8D98537F10B0A126F35737FB71DEA80F9E0E50FB24B0C4528E5D339A7CDFB374B06561CA648AA83DC30C50FB10B0C95E115FAC9871D300009211

Loading /pkg/cadence/installs/XCELIUM1803/tools.lnx86/cmi/lib/64bit/5.0/libinfineon_sh.so ...
Loading /pkg/cadence/installs/XCELIUM1803/tools.lnx86/cmi/lib/64bit/5.0/libphilips_o_sh.so ...
Loading /pkg/cadence/installs/XCELIUM1803/tools.lnx86/cmi/lib/64bit/5.0/libphilips_sh.so ...
Loading /pkg/cadence/installs/XCELIUM1803/tools.lnx86/cmi/lib/64bit/5.0/libsparam_sh.so ...
Loading /pkg/cadence/installs/XCELIUM1803/tools.lnx86/cmi/lib/64bit/5.0/libstmodels_sh.so ...
Reading file:  /home/ykhuang/WorkingDir_XH018/Sim/MultiChannel_EMG_TestBench/MultiChannelAFE_TB_2/adexl/results/data/Interactive.7/1/MultiChannel_EMG_TestBench:MultiChannelAFE_TB_2:1/netlist/.mapi/xcelium.d/AMSD/ams_spice_in/.amsspice_pre.ckt
Reading file:  /pkg/cadence/installs/XCELIUM1803/tools.lnx86/spectre/etc/configs/mapsubckt.cfg
Reading file:  /pkg/cadence/installs/XCELIUM1803/tools.lnx86/spectre/etc/configs/spectre.cfg
Time for NDB Parsing: CPU = 103.085 ms, elapsed = 194.748 ms.
Time accumulated: CPU = 158.846 ms, elapsed = 194.758 ms.
Peak resident memory used = 50.4 Mbytes.

