
Spectre (R) Circuit Simulator
Version 17.1.0.433.isr9 64bit -- 5 Nov 2018
Copyright (C) 1989-2018 Cadence Design Systems, Inc. All rights reserved worldwide. Cadence and Spectre are registered trademarks of Cadence Design Systems, Inc. All others are the property of their respective holders.

Includes RSA BSAFE(R) Cryptographic or Security Protocol Software from RSA Security, Inc.

User: ykhuang   Host: s2424   HostID: ED824314   PID: 25881
Memory  available: 14.0877 GB  physical: 67.2863 GB
Linux   : CentOS Linux release 7.9.2009 (Core)
CPU Type: Intel(R) Xeon(R) CPU E5-2630 v3 @ 2.40GHz
        Socket: Processors [Frequency] (Hyperthreaded Processor)
        0:       0 [1207.9] ( 16 ),  1 [1225.2] ( 17 ),  2 [1200.1] ( 18 )
                 3 [1291.8] ( 19 ),  4 [3176.1] ( 20 ),  5 [1200.0] ( 21 )
                 6 [1200.0] ( 22 ),  7 [1211.7] ( 23 )
        1:       8 [1200.0] ( 24 ),  9 [1242.6] ( 25 ), 10 [1200.0] ( 26 )
                11 [1200.0] ( 27 ), 12 [1292.9] ( 28 ), 13 [1256.0] ( 29 )
                14 [1341.9] ( 30 ), 15 [1228.7] ( 31 )
        
System load averages (1min, 5min, 15min) : 5.1 %, 4.3 %, 3.1 %
Hyperthreading is enabled


Simulating `/home/ykhuang/WorkingDir_XH018/Sim/MultiChannel_EMG_TestBench/MultiChannelAFE_TB_2/adexl/results/data/Interactive.11/1/MultiChannel_EMG_TestBench:MultiChannelAFE_TB_2:1/netlist/.mapi//xcelium.d/AMSD/ams_spice_in/./.amsspice_pre.ckt' on s2424 at 11:49:04 AM, Mon Oct 11, 2021 (process id: 25881).
Current working directory: /home/ykhuang/WorkingDir_XH018/Sim/MultiChannel_EMG_TestBench/MultiChannelAFE_TB_2/adexl/results/data/Interactive.11/1/MultiChannel_EMG_TestBench:MultiChannelAFE_TB_2:1/netlist
Environment variable:
    SPECTRE_DEFAULTS=
Command line:
    amsprimtool  \
        /home/ykhuang/WorkingDir_XH018/Sim/MultiChannel_EMG_TestBench/MultiChannelAFE_TB_2/adexl/results/data/Interactive.11/1/MultiChannel_EMG_TestBench:MultiChannelAFE_TB_2:1/netlist/.mapi//xcelium.d/AMSD/ams_spice_in/./.amsspice_pre.ckt  \
        -noraw -va,amsspice_pre -ahdllibdir  \
        /home/ykhuang/WorkingDir_XH018/Sim/MultiChannel_EMG_TestBench/MultiChannelAFE_TB_2/adexl/results/data/Interactive.11/1/MultiChannel_EMG_TestBench:MultiChannelAFE_TB_2:1/netlist/.mapi//xcelium.d/AMSD/ams_spice_in/ahdlSimDB  \
        =log  \
        /home/ykhuang/WorkingDir_XH018/Sim/MultiChannel_EMG_TestBench/MultiChannelAFE_TB_2/adexl/results/data/Interactive.11/1/MultiChannel_EMG_TestBench:MultiChannelAFE_TB_2:1/netlist/.mapi//xcelium.d/AMSD/ams_spice_in/./.amsspice_pre.ckt.log  \
        -token  \
        0001AF26C83A239465DFBB2CC00A229E73C4B63DFD3B60CB2080E838B83335D47FDDA126F37837D471DEB338DD1737BF79DEBF55B57661C35880EE1DB70325973FFD8A3BF7303E9E71DEAA2FD506049E57EF843BF66738D47ED3AD0AC828389A79F38C17C60D15A451F6D86EDD1B349E3FD1E23CE03C259775C3E62DF86031D471C4AE39C726338F62D1FC22AB7B7FCA2181A9388119139364D9AA07C91F15B67CEF8F2CE806129E63C48D72EF2B3C8F5DC5AE32E11335977EDEB920F3480FC944F2E227BB643C9275C4EA72EE2120927DD1B532AB66398E75DC8D5FD35603BF51FD9A3DB23420924FC3997BA0767ED47E9FB63EAA3E399863C0BD61EB083390759EAB38AB2E62C92187880DDF8F537F10B0A126F35737FB71DEA80F9E0E50FB24B0C4528E5D339A7CDFB374B06561CA648AA83DC30C50FB10B0C959E5B2587571D40000920C

Loading /pkg/cadence/installs/XCELIUM1803/tools.lnx86/cmi/lib/64bit/5.0/libinfineon_sh.so ...
Loading /pkg/cadence/installs/XCELIUM1803/tools.lnx86/cmi/lib/64bit/5.0/libphilips_o_sh.so ...
Loading /pkg/cadence/installs/XCELIUM1803/tools.lnx86/cmi/lib/64bit/5.0/libphilips_sh.so ...
Loading /pkg/cadence/installs/XCELIUM1803/tools.lnx86/cmi/lib/64bit/5.0/libsparam_sh.so ...
Loading /pkg/cadence/installs/XCELIUM1803/tools.lnx86/cmi/lib/64bit/5.0/libstmodels_sh.so ...
Reading file:  /home/ykhuang/WorkingDir_XH018/Sim/MultiChannel_EMG_TestBench/MultiChannelAFE_TB_2/adexl/results/data/Interactive.11/1/MultiChannel_EMG_TestBench:MultiChannelAFE_TB_2:1/netlist/.mapi/xcelium.d/AMSD/ams_spice_in/.amsspice_pre.ckt
Reading file:  /pkg/cadence/installs/XCELIUM1803/tools.lnx86/spectre/etc/configs/mapsubckt.cfg
Reading file:  /pkg/cadence/installs/XCELIUM1803/tools.lnx86/spectre/etc/configs/spectre.cfg
Time for NDB Parsing: CPU = 121.004 ms, elapsed = 212.313 ms.
Time accumulated: CPU = 179.439 ms, elapsed = 212.324 ms.
Peak resident memory used = 48.4 Mbytes.

