
Spectre (R) Circuit Simulator
Version 17.1.0.433.isr9 64bit -- 5 Nov 2018
Copyright (C) 1989-2018 Cadence Design Systems, Inc. All rights reserved worldwide. Cadence and Spectre are registered trademarks of Cadence Design Systems, Inc. All others are the property of their respective holders.

Includes RSA BSAFE(R) Cryptographic or Security Protocol Software from RSA Security, Inc.

User: ykhuang   Host: s2424   HostID: ED824314   PID: 14445
Memory  available: 51.0635 GB  physical: 67.2863 GB
Linux   : CentOS Linux release 7.9.2009 (Core)
CPU Type: Intel(R) Xeon(R) CPU E5-2630 v3 @ 2.40GHz
        Socket: Processors [Frequency] (Hyperthreaded Processor)
        0:       0 [2804.0] ( 16 ),  1 [2810.0] ( 17 ),  2 [1255.7] ( 18 )
                 3 [1499.9] ( 19 ),  4 [2804.0] ( 20 ),  5 [1321.0] ( 21 )
                 6 [1199.9] ( 22 ),  7 [1299.9] ( 23 )
        1:       8 [2808.3] ( 24 ),  9 [1200.0] ( 25 ), 10 [2822.2] ( 26 )
                11 [2402.6] ( 27 ), 12 [1293.5] ( 28 ), 13 [2810.9] ( 29 )
                14 [1264.7] ( 30 ), 15 [1200.3] ( 31 )
        
System load averages (1min, 5min, 15min) : 19.5 %, 19.4 %, 19.6 %
Hyperthreading is enabled


Simulating `/home/ykhuang/WorkingDir_XH018/Sim/MultiChannel_EMG_TestBench/TCA_DSL_Chopping_TB/adexl/results/data/Interactive.40/4/MultiChannel_EMG_TestBench:TCA_DSL_Chopping_TB:1/netlist/.mapi//xcelium.d/AMSD/ams_spice_in/./.amsspice_pre.ckt' on s2424 at 4:47:38 PM, Fri Oct 8, 2021 (process id: 14445).
Current working directory: /home/ykhuang/WorkingDir_XH018/Sim/MultiChannel_EMG_TestBench/TCA_DSL_Chopping_TB/adexl/results/data/Interactive.40/4/MultiChannel_EMG_TestBench:TCA_DSL_Chopping_TB:1/netlist
Environment variable:
    SPECTRE_DEFAULTS=
Command line:
    amsprimtool  \
        /home/ykhuang/WorkingDir_XH018/Sim/MultiChannel_EMG_TestBench/TCA_DSL_Chopping_TB/adexl/results/data/Interactive.40/4/MultiChannel_EMG_TestBench:TCA_DSL_Chopping_TB:1/netlist/.mapi//xcelium.d/AMSD/ams_spice_in/./.amsspice_pre.ckt  \
        -noraw -va,amsspice_pre -ahdllibdir  \
        /home/ykhuang/WorkingDir_XH018/Sim/MultiChannel_EMG_TestBench/TCA_DSL_Chopping_TB/adexl/results/data/Interactive.40/4/MultiChannel_EMG_TestBench:TCA_DSL_Chopping_TB:1/netlist/.mapi//xcelium.d/AMSD/ams_spice_in/ahdlSimDB  \
        =log  \
        /home/ykhuang/WorkingDir_XH018/Sim/MultiChannel_EMG_TestBench/TCA_DSL_Chopping_TB/adexl/results/data/Interactive.40/4/MultiChannel_EMG_TestBench:TCA_DSL_Chopping_TB:1/netlist/.mapi//xcelium.d/AMSD/ams_spice_in/./.amsspice_pre.ckt.log  \
        -token  \
        0001AF26C83A239465DFBB2CC00A229E73C4B63DFD3B60CB2080E838B83335D47FDDA126F37837D471DEB338DD1737BF79DEBF55B57661C35880EE1DB70325973FFD8A3BF7303E9E71DEAA2FD506049E57EF843BF66738D47ED3AD31F5201CA454E3B724C0333E9C60D98B76D710358371D4A92DED673C8F63C5B83DB15A7FB264D1AC2CF721249271D3B626AF7664D4209FAD0AC828389A79F39214CE151DBC4FF5B90CD706359564F2D128D1100FBF53F19F11CE00208B78DF9B20BE636ACA44F2A120B126238F7CD9B535ED3D7FD460D9A424F8713DD579C5BA34A6727F9A43F48727E32A339E60D9E83D9C347E9A3E9FB22EE51035A479D3AE78E96E24DB73DBAE38EB3935CB7385A83DCE88537F10B0A126F35737FB71DEA80F9E0E50FB24B09204D83C65FB2A89A83DED3C50FB10B0A83DED3C50FB10B0C95DB7340AF371D0000091F8

Loading /pkg/cadence/installs/XCELIUM1803/tools.lnx86/cmi/lib/64bit/5.0/libinfineon_sh.so ...
Loading /pkg/cadence/installs/XCELIUM1803/tools.lnx86/cmi/lib/64bit/5.0/libphilips_o_sh.so ...
Loading /pkg/cadence/installs/XCELIUM1803/tools.lnx86/cmi/lib/64bit/5.0/libphilips_sh.so ...
Loading /pkg/cadence/installs/XCELIUM1803/tools.lnx86/cmi/lib/64bit/5.0/libsparam_sh.so ...
Loading /pkg/cadence/installs/XCELIUM1803/tools.lnx86/cmi/lib/64bit/5.0/libstmodels_sh.so ...
Reading file:  /home/ykhuang/WorkingDir_XH018/Sim/MultiChannel_EMG_TestBench/TCA_DSL_Chopping_TB/adexl/results/data/Interactive.40/4/MultiChannel_EMG_TestBench:TCA_DSL_Chopping_TB:1/netlist/.mapi/xcelium.d/AMSD/ams_spice_in/.amsspice_pre.ckt
Reading file:  /pkg/cadence/installs/XCELIUM1803/tools.lnx86/spectre/etc/configs/mapsubckt.cfg
Reading file:  /pkg/cadence/installs/XCELIUM1803/tools.lnx86/spectre/etc/configs/spectre.cfg
Time for NDB Parsing: CPU = 103.585 ms, elapsed = 193.929 ms.
Time accumulated: CPU = 158.115 ms, elapsed = 193.938 ms.
Peak resident memory used = 50.4 Mbytes.

