
Spectre (R) Circuit Simulator
Version 18.1.0.516.isr12 64bit -- 25 Oct 2019
Copyright (C) 1989-2019 Cadence Design Systems, Inc. All rights reserved worldwide. Cadence and Spectre are registered trademarks of Cadence Design Systems, Inc. All others are the property of their respective holders.

Includes RSA BSAFE(R) Cryptographic or Security Protocol Software from RSA Security, Inc.

User: ykhuang   Host: s2424   HostID: ED824314   PID: 21587
Memory  available: 14.0386 GB  physical: 67.2863 GB
Linux   : CentOS Linux release 7.9.2009 (Core)
CPU Type: Intel(R) Xeon(R) CPU E5-2630 v3 @ 2.40GHz
        Socket: Processors [Frequency] (Hyperthreaded Processor)
        0:       0 [2299.2] ( 16 ),  1 [1389.8] ( 17 ),  2 [1230.8] ( 18 )
                 3 [2830.8] ( 19 ),  4 [1200.0] ( 20 ),  5 [1466.3] ( 21 )
                 6 [1200.0] ( 22 ),  7 [1392.9] ( 23 )
        1:       8 [1763.4] ( 24 ),  9 [2400.3] ( 25 ), 10 [2400.0] ( 26 )
                11 [1296.4] ( 27 ), 12 [1200.0] ( 28 ), 13 [1200.0] ( 29 )
                14 [1210.3] ( 30 ), 15 [1282.2] ( 31 )
        
System load averages (1min, 5min, 15min) : 4.9 %, 2.5 %, 1.7 %
Hyperthreading is enabled
HPC is enabled


Simulating `input.scs' on s2424 at 11:36:08 AM, Mon Oct 11, 2021 (process id: 21587).
Current working directory: /home/ykhuang/WorkingDir_XH018/Sim/MultiChannel_EMG_TestBench/TCAimp_TB/adexl/results/data/Interactive.24/17/MultiChannel_EMG_TestBench:TCAimp_TB:1/netlist
Command line:
    /pkg/cadence/installs/SPECTRE181/tools/bin/spectre -64 input.scs  \
        +escchars +log ../psf/spectre.out -format psfxl -raw ../psf  \
        ++aps +lqtimeout 900 -maxw 5 -maxn 5 -env ade -ahdllibdir  \
        /home/ykhuang/WorkingDir_XH018/Sim/MultiChannel_EMG_TestBench/TCAimp_TB/adexl/results/data/Interactive.24/sharedData/Job302/ahdl/input.ahdlSimDB  \
        +logstatus

Loading /pkg/cadence/installs/SPECTRE181/tools.lnx86/cmi/lib/64bit/5.0/libinfineon_sh.so ...
Loading /pkg/cadence/installs/SPECTRE181/tools.lnx86/cmi/lib/64bit/5.0/libphilips_o_sh.so ...
Loading /pkg/cadence/installs/SPECTRE181/tools.lnx86/cmi/lib/64bit/5.0/libphilips_sh.so ...
Loading /pkg/cadence/installs/SPECTRE181/tools.lnx86/cmi/lib/64bit/5.0/libsparam_sh.so ...
Loading /pkg/cadence/installs/SPECTRE181/tools.lnx86/cmi/lib/64bit/5.0/libstmodels_sh.so ...
Reading file:  /home/ykhuang/WorkingDir_XH018/Sim/MultiChannel_EMG_TestBench/TCAimp_TB/adexl/results/data/Interactive.24/17/MultiChannel_EMG_TestBench:TCAimp_TB:1/netlist/input.scs
Reading file:  /pkg/cadence/installs/SPECTRE181/tools.lnx86/spectre/etc/configs/spectre.cfg
Reading file:  /pkg/xfab/XKIT/xh018/cadence/v8_0/spectre/v8_0_1/lpmos/param.scs
Reading file:  /pkg/xfab/XKIT/xh018/cadence/v8_0/spectre/v8_0_1/lpmos/bip.scs
Reading file:  /pkg/xfab/XKIT/xh018/cadence/v8_0/spectre/v8_0_1/lpmos/models/bip/tm_bip.scs
Reading file:  /pkg/xfab/XKIT/xh018/cadence/v8_0/spectre/v8_0_1/lpmos/models/bip/qpva.scs
Reading file:  /pkg/xfab/XKIT/xh018/cadence/v8_0/spectre/v8_0_1/lpmos/models/bip/qpvb.scs
Reading file:  /pkg/xfab/XKIT/xh018/cadence/v8_0/spectre/v8_0_1/lpmos/models/bip/qpvc.scs
Reading file:  /pkg/xfab/XKIT/xh018/cadence/v8_0/spectre/v8_0_1/lpmos/models/bip/qpva3.scs
Reading file:  /pkg/xfab/XKIT/xh018/cadence/v8_0/spectre/v8_0_1/lpmos/models/bip/qpvb3.scs
Reading file:  /pkg/xfab/XKIT/xh018/cadence/v8_0/spectre/v8_0_1/lpmos/models/bip/qpvc3.scs
Reading file:  /pkg/xfab/XKIT/xh018/cadence/v8_0/spectre/v8_0_1/lpmos/models/bip/qnva.scs
Reading file:  /pkg/xfab/XKIT/xh018/cadence/v8_0/spectre/v8_0_1/lpmos/models/bip/qnvb.scs
Reading file:  /pkg/xfab/XKIT/xh018/cadence/v8_0/spectre/v8_0_1/lpmos/models/bip/qnvb_npn.scs
Reading file:  /pkg/xfab/XKIT/xh018/cadence/v8_0/spectre/v8_0_1/lpmos/models/bip/qnvb_pnp.scs
Reading file:  /pkg/xfab/XKIT/xh018/cadence/v8_0/spectre/v8_0_1/lpmos/models/bip/qnvc.scs
Reading file:  /pkg/xfab/XKIT/xh018/cadence/v8_0/spectre/v8_0_1/lpmos/models/bip/qnvc_npn.scs
Reading file:  /pkg/xfab/XKIT/xh018/cadence/v8_0/spectre/v8_0_1/lpmos/models/bip/qnvc_pnp.scs
Reading file:  /pkg/xfab/XKIT/xh018/cadence/v8_0/spectre/v8_0_1/lpmos/models/bip/qpvhscr.scs
Reading file:  /pkg/xfab/XKIT/xh018/cadence/v8_0/spectre/v8_0_1/lpmos/models/bip/qpvascr.scs
Reading file:  /pkg/xfab/XKIT/xh018/cadence/v8_0/spectre/v8_0_1/lpmos/models/bip/qpvhbscr.scs
Reading file:  /pkg/xfab/XKIT/xh018/cadence/v8_0/spectre/v8_0_1/lpmos/models/bip/qpv_pa.scs
Reading file:  /pkg/xfab/XKIT/xh018/cadence/v8_0/spectre/v8_0_1/lpmos/models/bip/qpv_pb.scs
Reading file:  /pkg/xfab/XKIT/xh018/cadence/v8_0/spectre/v8_0_1/lpmos/models/bip/qpv_pc.scs
Reading file:  /pkg/xfab/XKIT/xh018/cadence/v8_0/spectre/v8_0_1/lpmos/models/bip/qpv_pd.scs
Reading file:  /pkg/xfab/XKIT/xh018/cadence/v8_0/spectre/v8_0_1/lpmos/models/bip/qpv_pe.scs
Reading file:  /pkg/xfab/XKIT/xh018/cadence/v8_0/spectre/v8_0_1/lpmos/models/bip/qpv_pf.scs
Reading file:  /pkg/xfab/XKIT/xh018/cadence/v8_0/spectre/v8_0_1/lpmos/models/bip/qpl_pa.scs
Reading file:  /pkg/xfab/XKIT/xh018/cadence/v8_0/spectre/v8_0_1/lpmos/models/bip/qpl_pb.scs
Reading file:  /pkg/xfab/XKIT/xh018/cadence/v8_0/spectre/v8_0_1/lpmos/models/bip/qpl_pc.scs
Reading file:  /pkg/xfab/XKIT/xh018/cadence/v8_0/spectre/v8_0_1/lpmos/models/bip/qpl_pd.scs
Reading file:  /pkg/xfab/XKIT/xh018/cadence/v8_0/spectre/v8_0_1/lpmos/models/bip/qpl_pe.scs
Reading file:  /pkg/xfab/XKIT/xh018/cadence/v8_0/spectre/v8_0_1/lpmos/models/bip/qpl_pf.scs
Reading file:  /pkg/xfab/XKIT/xh018/cadence/v8_0/spectre/v8_0_1/lpmos/models/bip/qnl_pa.scs
Reading file:  /pkg/xfab/XKIT/xh018/cadence/v8_0/spectre/v8_0_1/lpmos/models/bip/qnl_pb.scs
Reading file:  /pkg/xfab/XKIT/xh018/cadence/v8_0/spectre/v8_0_1/lpmos/models/bip/qnl_pc.scs
Reading file:  /pkg/xfab/XKIT/xh018/cadence/v8_0/spectre/v8_0_1/lpmos/models/bip/qnl_pd.scs
Reading file:  /pkg/xfab/XKIT/xh018/cadence/v8_0/spectre/v8_0_1/lpmos/models/bip/qnl_pe.scs
Reading file:  /pkg/xfab/XKIT/xh018/cadence/v8_0/spectre/v8_0_1/lpmos/models/bip/qnl_pf.scs
Reading file:  /pkg/xfab/XKIT/xh018/cadence/v8_0/spectre/v8_0_1/lpmos/cap.scs
Reading file:  /pkg/xfab/XKIT/xh018/cadence/v8_0/spectre/v8_0_1/lpmos/models/cap/ws_cap.scs
Reading file:  /pkg/xfab/XKIT/xh018/cadence/v8_0/spectre/v8_0_1/lpmos/models/cap/csandwt3.scs
Reading file:  /pkg/xfab/XKIT/xh018/cadence/v8_0/spectre/v8_0_1/lpmos/models/cap/csandwt4.scs
Reading file:  /pkg/xfab/XKIT/xh018/cadence/v8_0/spectre/v8_0_1/lpmos/models/cap/csandwt5.scs
Reading file:  /pkg/xfab/XKIT/xh018/cadence/v8_0/spectre/v8_0_1/lpmos/models/cap/csf2p.scs
Reading file:  /pkg/xfab/XKIT/xh018/cadence/v8_0/spectre/v8_0_1/lpmos/models/cap/csf3p.scs
Reading file:  /pkg/xfab/XKIT/xh018/cadence/v8_0/spectre/v8_0_1/lpmos/models/cap/csf3.scs
Reading file:  /pkg/xfab/XKIT/xh018/cadence/v8_0/spectre/v8_0_1/lpmos/models/cap/csf4.scs
Reading file:  /pkg/xfab/XKIT/xh018/cadence/v8_0/spectre/v8_0_1/lpmos/models/cap/csf5.scs
Reading file:  /pkg/xfab/XKIT/xh018/cadence/v8_0/spectre/v8_0_1/lpmos/models/cap/csft4.scs
Reading file:  /pkg/xfab/XKIT/xh018/cadence/v8_0/spectre/v8_0_1/lpmos/models/cap/csft5.scs
Reading file:  /pkg/xfab/XKIT/xh018/cadence/v8_0/spectre/v8_0_1/lpmos/models/cap/csft6.scs
Reading file:  /pkg/xfab/XKIT/xh018/cadence/v8_0/spectre/v8_0_1/lpmos/models/cap/csf3a.scs
Reading file:  /pkg/xfab/XKIT/xh018/cadence/v8_0/spectre/v8_0_1/lpmos/models/cap/csf4a.scs
Reading file:  /pkg/xfab/XKIT/xh018/cadence/v8_0/spectre/v8_0_1/lpmos/models/cap/csf5a.scs
Reading file:  /pkg/xfab/XKIT/xh018/cadence/v8_0/spectre/v8_0_1/lpmos/models/cap/csft4a.scs
Reading file:  /pkg/xfab/XKIT/xh018/cadence/v8_0/spectre/v8_0_1/lpmos/models/cap/csft5a.scs
Reading file:  /pkg/xfab/XKIT/xh018/cadence/v8_0/spectre/v8_0_1/lpmos/models/cap/csft6a.scs
Reading file:  /pkg/xfab/XKIT/xh018/cadence/v8_0/spectre/v8_0_1/lpmos/models/cap/cmm3.scs
Reading file:  /pkg/xfab/XKIT/xh018/cadence/v8_0/spectre/v8_0_1/lpmos/models/cap/cmm4t.scs
Reading file:  /pkg/xfab/XKIT/xh018/cadence/v8_0/spectre/v8_0_1/lpmos/models/cap/cmm4.scs
Reading file:  /pkg/xfab/XKIT/xh018/cadence/v8_0/spectre/v8_0_1/lpmos/models/cap/cmm5t.scs
Reading file:  /pkg/xfab/XKIT/xh018/cadence/v8_0/spectre/v8_0_1/lpmos/models/cap/cmm6t.scs
Reading file:  /pkg/xfab/XKIT/xh018/cadence/v8_0/spectre/v8_0_1/lpmos/models/cap/cdmm4.scs
Reading file:  /pkg/xfab/XKIT/xh018/cadence/v8_0/spectre/v8_0_1/lpmos/models/cap/cdmm4t.scs
Reading file:  /pkg/xfab/XKIT/xh018/cadence/v8_0/spectre/v8_0_1/lpmos/models/cap/ctmm5.scs
Reading file:  /pkg/xfab/XKIT/xh018/cadence/v8_0/spectre/v8_0_1/lpmos/models/cap/ctmm5t.scs
Reading file:  /pkg/xfab/XKIT/xh018/cadence/v8_0/spectre/v8_0_1/lpmos/models/cap/cmmh3.scs
Reading file:  /pkg/xfab/XKIT/xh018/cadence/v8_0/spectre/v8_0_1/lpmos/models/cap/cmmh4t.scs
Reading file:  /pkg/xfab/XKIT/xh018/cadence/v8_0/spectre/v8_0_1/lpmos/models/cap/cmmh4.scs
Reading file:  /pkg/xfab/XKIT/xh018/cadence/v8_0/spectre/v8_0_1/lpmos/models/cap/cmmh5t.scs
Reading file:  /pkg/xfab/XKIT/xh018/cadence/v8_0/spectre/v8_0_1/lpmos/models/cap/cmmh6t.scs
Reading file:  /pkg/xfab/XKIT/xh018/cadence/v8_0/spectre/v8_0_1/lpmos/models/cap/cdmmh4.scs
Reading file:  /pkg/xfab/XKIT/xh018/cadence/v8_0/spectre/v8_0_1/lpmos/models/cap/cdmmh4t.scs
Reading file:  /pkg/xfab/XKIT/xh018/cadence/v8_0/spectre/v8_0_1/lpmos/models/cap/ctmmh5.scs
Reading file:  /pkg/xfab/XKIT/xh018/cadence/v8_0/spectre/v8_0_1/lpmos/models/cap/ctmmh5t.scs
Reading file:  /pkg/xfab/XKIT/xh018/cadence/v8_0/spectre/v8_0_1/lpmos/models/cap/mosvc.scs
Reading file:  /pkg/xfab/XKIT/xh018/cadence/v8_0/spectre/v8_0_1/lpmos/models/cap/mosvc_pmos.scs
Reading file:  /pkg/xfab/XKIT/xh018/cadence/v8_0/spectre/v8_0_1/lpmos/models/cap/mosvci.scs
Reading file:  /pkg/xfab/XKIT/xh018/cadence/v8_0/spectre/v8_0_1/lpmos/models/cap/mosvci_nmos.scs
Reading file:  /pkg/xfab/XKIT/xh018/cadence/v8_0/spectre/v8_0_1/lpmos/models/cap/mosvci_m.scs
Reading file:  /pkg/xfab/XKIT/xh018/cadence/v8_0/spectre/v8_0_1/lpmos/models/cap/mosvc3.scs
Reading file:  /pkg/xfab/XKIT/xh018/cadence/v8_0/spectre/v8_0_1/lpmos/models/cap/mosvc3_pmos.scs
Reading file:  /pkg/xfab/XKIT/xh018/cadence/v8_0/spectre/v8_0_1/lpmos/models/cap/mosvc3i.scs
Reading file:  /pkg/xfab/XKIT/xh018/cadence/v8_0/spectre/v8_0_1/lpmos/models/cap/mosvc3i_nmos.scs
Reading file:  /pkg/xfab/XKIT/xh018/cadence/v8_0/spectre/v8_0_1/lpmos/models/cap/mosvc3i_m.scs
Reading file:  /pkg/xfab/XKIT/xh018/cadence/v8_0/spectre/v8_0_1/lpmos/models/cap/cpod.scs
Reading file:  /pkg/xfab/XKIT/xh018/cadence/v8_0/spectre/v8_0_1/lpmos/models/cap/cpod_i.scs
Reading file:  /pkg/xfab/XKIT/xh018/cadence/v8_0/spectre/v8_0_1/lpmos/models/cap/cpodhv.scs
Reading file:  /pkg/xfab/XKIT/xh018/cadence/v8_0/spectre/v8_0_1/lpmos/models/cap/cpodhv_i.scs
Reading file:  /pkg/xfab/XKIT/xh018/cadence/v8_0/spectre/v8_0_1/lpmos/models/cap/cp1sub.scs
Reading file:  /pkg/xfab/XKIT/xh018/cadence/v8_0/spectre/v8_0_1/lpmos/models/cap/cp1suba.scs
Reading file:  /pkg/xfab/XKIT/xh018/cadence/v8_0/spectre/v8_0_1/lpmos/models/cap/cp1subp.scs
Reading file:  /pkg/xfab/XKIT/xh018/cadence/v8_0/spectre/v8_0_1/lpmos/models/cap/tag_25v.scs
Reading file:  /pkg/xfab/XKIT/xh018/cadence/v8_0/spectre/v8_0_1/lpmos/models/cap/tag_60v.scs
Reading file:  /pkg/xfab/XKIT/xh018/cadence/v8_0/spectre/v8_0_1/lpmos/dio.scs
Reading file:  /pkg/xfab/XKIT/xh018/cadence/v8_0/spectre/v8_0_1/lpmos/models/dio/tm_dio.scs
Reading file:  /pkg/xfab/XKIT/xh018/cadence/v8_0/spectre/v8_0_1/lpmos/models/dio/dn.scs
Reading file:  /pkg/xfab/XKIT/xh018/cadence/v8_0/spectre/v8_0_1/lpmos/models/dio/dp.scs
Reading file:  /pkg/xfab/XKIT/xh018/cadence/v8_0/spectre/v8_0_1/lpmos/models/dio/dnw.scs
Reading file:  /pkg/xfab/XKIT/xh018/cadence/v8_0/spectre/v8_0_1/lpmos/models/dio/dn3.scs
Reading file:  /pkg/xfab/XKIT/xh018/cadence/v8_0/spectre/v8_0_1/lpmos/models/dio/dnn3.scs
Reading file:  /pkg/xfab/XKIT/xh018/cadence/v8_0/spectre/v8_0_1/lpmos/models/dio/dp3.scs
Reading file:  /pkg/xfab/XKIT/xh018/cadence/v8_0/spectre/v8_0_1/lpmos/models/dio/dnw3.scs
Reading file:  /pkg/xfab/XKIT/xh018/cadence/v8_0/spectre/v8_0_1/lpmos/models/dio/ddnwmv.scs
Reading file:  /pkg/xfab/XKIT/xh018/cadence/v8_0/spectre/v8_0_1/lpmos/models/dio/dpdnwmv.scs
Reading file:  /pkg/xfab/XKIT/xh018/cadence/v8_0/spectre/v8_0_1/lpmos/models/dio/dipdnwmv.scs
Reading file:  /pkg/xfab/XKIT/xh018/cadence/v8_0/spectre/v8_0_1/lpmos/models/dio/ddnw.scs
Reading file:  /pkg/xfab/XKIT/xh018/cadence/v8_0/spectre/v8_0_1/lpmos/models/dio/dpdnw.scs
Reading file:  /pkg/xfab/XKIT/xh018/cadence/v8_0/spectre/v8_0_1/lpmos/models/dio/dipdnw.scs
Reading file:  /pkg/xfab/XKIT/xh018/cadence/v8_0/spectre/v8_0_1/lpmos/models/dio/dnhpw.scs
Reading file:  /pkg/xfab/XKIT/xh018/cadence/v8_0/spectre/v8_0_1/lpmos/models/dio/dnhpwa.scs
Reading file:  /pkg/xfab/XKIT/xh018/cadence/v8_0/spectre/v8_0_1/lpmos/models/dio/dphnw.scs
Reading file:  /pkg/xfab/XKIT/xh018/cadence/v8_0/spectre/v8_0_1/lpmos/models/dio/dphnwa.scs
Reading file:  /pkg/xfab/XKIT/xh018/cadence/v8_0/spectre/v8_0_1/lpmos/models/dio/dhpw.scs
Reading file:  /pkg/xfab/XKIT/xh018/cadence/v8_0/spectre/v8_0_1/lpmos/models/dio/dhnw.scs
Reading file:  /pkg/xfab/XKIT/xh018/cadence/v8_0/spectre/v8_0_1/lpmos/models/dio/dndf.scs
Reading file:  /pkg/xfab/XKIT/xh018/cadence/v8_0/spectre/v8_0_1/lpmos/models/dio/dpdwhn.scs
Reading file:  /pkg/xfab/XKIT/xh018/cadence/v8_0/spectre/v8_0_1/lpmos/models/dio/dwhn.scs
Reading file:  /pkg/xfab/XKIT/xh018/cadence/v8_0/spectre/v8_0_1/lpmos/models/dio/dpwhn.scs
Reading file:  /pkg/xfab/XKIT/xh018/cadence/v8_0/spectre/v8_0_1/lpmos/models/dio/dpndf.scs
Reading file:  /pkg/xfab/XKIT/xh018/cadence/v8_0/spectre/v8_0_1/lpmos/models/dio/dpdddnw.scs
Reading file:  /pkg/xfab/XKIT/xh018/cadence/v8_0/spectre/v8_0_1/lpmos/models/dio/ddpldnw.scs
Reading file:  /pkg/xfab/XKIT/xh018/cadence/v8_0/spectre/v8_0_1/lpmos/models/dio/dn3dpl.scs
Reading file:  /pkg/xfab/XKIT/xh018/cadence/v8_0/spectre/v8_0_1/lpmos/models/dio/dbn.scs
Reading file:  /pkg/xfab/XKIT/xh018/cadence/v8_0/spectre/v8_0_1/lpmos/models/dio/dpol.scs
Reading file:  /pkg/xfab/XKIT/xh018/cadence/v8_0/spectre/v8_0_1/lpmos/models/dio/dnpdd_scr.scs
Reading file:  /pkg/xfab/XKIT/xh018/cadence/v8_0/spectre/v8_0_1/lpmos/models/dio/dpdd_scr.scs
Reading file:  /pkg/xfab/XKIT/xh018/cadence/v8_0/spectre/v8_0_1/lpmos/models/dio/dsb.scs
Reading file:  /pkg/xfab/XKIT/xh018/cadence/v8_0/spectre/v8_0_1/lpmos/models/dio/dsba.scs
Reading file:  /pkg/xfab/XKIT/xh018/cadence/v8_0/spectre/v8_0_1/lpmos/models/dio/dsba_qp1.scs
Reading file:  /pkg/xfab/XKIT/xh018/cadence/v8_0/spectre/v8_0_1/lpmos/models/dio/dnp20.scs
Reading file:  /pkg/xfab/XKIT/xh018/cadence/v8_0/spectre/v8_0_1/lpmos/models/dio/dpp20.scs
Reading file:  /pkg/xfab/XKIT/xh018/cadence/v8_0/spectre/v8_0_1/lpmos/models/dio/dn3sci.scs
Reading file:  /pkg/xfab/XKIT/xh018/cadence/v8_0/spectre/v8_0_1/lpmos/models/dio/dscidnwmv.scs
Reading file:  /pkg/xfab/XKIT/xh018/cadence/v8_0/spectre/v8_0_1/lpmos/mos.scs
Reading file:  /pkg/xfab/XKIT/xh018/cadence/v8_0/spectre/v8_0_1/lpmos/models/mos/wz_mos.scs
Reading file:  /pkg/xfab/XKIT/xh018/cadence/v8_0/spectre/v8_0_1/lpmos/models/mos/ne.scs
Reading file:  /pkg/xfab/XKIT/xh018/cadence/v8_0/spectre/v8_0_1/lpmos/models/mos/nei.scs
Reading file:  /pkg/xfab/XKIT/xh018/cadence/v8_0/spectre/v8_0_1/lpmos/models/mos/nei_6.scs
Reading file:  /pkg/xfab/XKIT/xh018/cadence/v8_0/spectre/v8_0_1/lpmos/models/mos/nei_m_6.scs
Reading file:  /pkg/xfab/XKIT/xh018/cadence/v8_0/spectre/v8_0_1/lpmos/models/mos/pe.scs
Reading file:  /pkg/xfab/XKIT/xh018/cadence/v8_0/spectre/v8_0_1/lpmos/models/mos/pe_5.scs
Reading file:  /pkg/xfab/XKIT/xh018/cadence/v8_0/spectre/v8_0_1/lpmos/models/mos/pei.scs
Reading file:  /pkg/xfab/XKIT/xh018/cadence/v8_0/spectre/v8_0_1/lpmos/models/mos/pei_5.scs
Reading file:  /pkg/xfab/XKIT/xh018/cadence/v8_0/spectre/v8_0_1/lpmos/models/mos/pei_m_5.scs
Reading file:  /pkg/xfab/XKIT/xh018/cadence/v8_0/spectre/v8_0_1/lpmos/models/mos/nel.scs
Reading file:  /pkg/xfab/XKIT/xh018/cadence/v8_0/spectre/v8_0_1/lpmos/models/mos/neli.scs
Reading file:  /pkg/xfab/XKIT/xh018/cadence/v8_0/spectre/v8_0_1/lpmos/models/mos/neli_6.scs
Reading file:  /pkg/xfab/XKIT/xh018/cadence/v8_0/spectre/v8_0_1/lpmos/models/mos/neli_m_6.scs
Reading file:  /pkg/xfab/XKIT/xh018/cadence/v8_0/spectre/v8_0_1/lpmos/models/mos/pel.scs
Reading file:  /pkg/xfab/XKIT/xh018/cadence/v8_0/spectre/v8_0_1/lpmos/models/mos/pel_5.scs
Reading file:  /pkg/xfab/XKIT/xh018/cadence/v8_0/spectre/v8_0_1/lpmos/models/mos/peli.scs
Reading file:  /pkg/xfab/XKIT/xh018/cadence/v8_0/spectre/v8_0_1/lpmos/models/mos/peli_5.scs
Reading file:  /pkg/xfab/XKIT/xh018/cadence/v8_0/spectre/v8_0_1/lpmos/models/mos/peli_m_5.scs
Reading file:  /pkg/xfab/XKIT/xh018/cadence/v8_0/spectre/v8_0_1/lpmos/models/mos/nn3.scs
Reading file:  /pkg/xfab/XKIT/xh018/cadence/v8_0/spectre/v8_0_1/lpmos/models/mos/ne3.scs
Reading file:  /pkg/xfab/XKIT/xh018/cadence/v8_0/spectre/v8_0_1/lpmos/models/mos/ne3i.scs
Reading file:  /pkg/xfab/XKIT/xh018/cadence/v8_0/spectre/v8_0_1/lpmos/models/mos/ne3i_6.scs
Reading file:  /pkg/xfab/XKIT/xh018/cadence/v8_0/spectre/v8_0_1/lpmos/models/mos/ne3i_m_6.scs
Reading file:  /pkg/xfab/XKIT/xh018/cadence/v8_0/spectre/v8_0_1/lpmos/models/mos/pe3.scs
Reading file:  /pkg/xfab/XKIT/xh018/cadence/v8_0/spectre/v8_0_1/lpmos/models/mos/pe3_5.scs
Reading file:  /pkg/xfab/XKIT/xh018/cadence/v8_0/spectre/v8_0_1/lpmos/models/mos/pe3i.scs
Reading file:  /pkg/xfab/XKIT/xh018/cadence/v8_0/spectre/v8_0_1/lpmos/models/mos/pe3i_5.scs
Reading file:  /pkg/xfab/XKIT/xh018/cadence/v8_0/spectre/v8_0_1/lpmos/models/mos/pe3i_m_5.scs
Reading file:  /pkg/xfab/XKIT/xh018/cadence/v8_0/spectre/v8_0_1/lpmos/models/mos/pe3ln.scs
Reading file:  /pkg/xfab/XKIT/xh018/cadence/v8_0/spectre/v8_0_1/lpmos/models/mos/pe3ln_5.scs
Reading file:  /pkg/xfab/XKIT/xh018/cadence/v8_0/spectre/v8_0_1/lpmos/models/mos/pe3lni.scs
Reading file:  /pkg/xfab/XKIT/xh018/cadence/v8_0/spectre/v8_0_1/lpmos/models/mos/pe3lni_5.scs
Reading file:  /pkg/xfab/XKIT/xh018/cadence/v8_0/spectre/v8_0_1/lpmos/models/mos/pe3lni_m_5.scs
Reading file:  /pkg/xfab/XKIT/xh018/cadence/v8_0/spectre/v8_0_1/lpmos/models/mos/nd3.scs
Reading file:  /pkg/xfab/XKIT/xh018/cadence/v8_0/spectre/v8_0_1/lpmos/models/mos/nd3_mos1.scs
Reading file:  /pkg/xfab/XKIT/xh018/cadence/v8_0/spectre/v8_0_1/lpmos/models/mos/nd3_mos2.scs
Reading file:  /pkg/xfab/XKIT/xh018/cadence/v8_0/spectre/v8_0_1/lpmos/models/mos/nd3i.scs
Reading file:  /pkg/xfab/XKIT/xh018/cadence/v8_0/spectre/v8_0_1/lpmos/models/mos/nd3i_mos1.scs
Reading file:  /pkg/xfab/XKIT/xh018/cadence/v8_0/spectre/v8_0_1/lpmos/models/mos/nd3i_mos2.scs
Reading file:  /pkg/xfab/XKIT/xh018/cadence/v8_0/spectre/v8_0_1/lpmos/models/mos/nd3i_6.scs
Reading file:  /pkg/xfab/XKIT/xh018/cadence/v8_0/spectre/v8_0_1/lpmos/models/mos/nd3i_m_6.scs
Reading file:  /pkg/xfab/XKIT/xh018/cadence/v8_0/spectre/v8_0_1/lpmos/models/mos/nelna.scs
Reading file:  /pkg/xfab/XKIT/xh018/cadence/v8_0/spectre/v8_0_1/lpmos/models/mos/nelnai.scs
Reading file:  /pkg/xfab/XKIT/xh018/cadence/v8_0/spectre/v8_0_1/lpmos/models/mos/nelnai_6.scs
Reading file:  /pkg/xfab/XKIT/xh018/cadence/v8_0/spectre/v8_0_1/lpmos/models/mos/nelnai_m_6.scs
Reading file:  /pkg/xfab/XKIT/xh018/cadence/v8_0/spectre/v8_0_1/lpmos/models/mos/ne3lna.scs
Reading file:  /pkg/xfab/XKIT/xh018/cadence/v8_0/spectre/v8_0_1/lpmos/models/mos/ne3lnai.scs
Reading file:  /pkg/xfab/XKIT/xh018/cadence/v8_0/spectre/v8_0_1/lpmos/models/mos/ne3lnai_6.scs
Reading file:  /pkg/xfab/XKIT/xh018/cadence/v8_0/spectre/v8_0_1/lpmos/models/mos/ne3lnai_m_6.scs
Reading file:  /pkg/xfab/XKIT/xh018/cadence/v8_0/spectre/v8_0_1/lpmos/models/mos/pe3lna.scs
Reading file:  /pkg/xfab/XKIT/xh018/cadence/v8_0/spectre/v8_0_1/lpmos/models/mos/pe3lna_5.scs
Reading file:  /pkg/xfab/XKIT/xh018/cadence/v8_0/spectre/v8_0_1/lpmos/models/mos/pe3lnai.scs
Reading file:  /pkg/xfab/XKIT/xh018/cadence/v8_0/spectre/v8_0_1/lpmos/models/mos/pe3lnai_5.scs
Reading file:  /pkg/xfab/XKIT/xh018/cadence/v8_0/spectre/v8_0_1/lpmos/models/mos/pe3lnai_m_5.scs
Reading file:  /pkg/xfab/XKIT/xh018/cadence/v8_0/spectre/v8_0_1/lpmos/models/mos/nmma.scs
Reading file:  /pkg/xfab/XKIT/xh018/cadence/v8_0/spectre/v8_0_1/lpmos/models/mos/jf_nmma.scs
Reading file:  /pkg/xfab/XKIT/xh018/cadence/v8_0/spectre/v8_0_1/lpmos/models/mos/nmma_bjt.scs
Reading file:  /pkg/xfab/XKIT/xh018/cadence/v8_0/spectre/v8_0_1/lpmos/models/mos/pmma.scs
Reading file:  /pkg/xfab/XKIT/xh018/cadence/v8_0/spectre/v8_0_1/lpmos/models/mos/jf_pmma.scs
Reading file:  /pkg/xfab/XKIT/xh018/cadence/v8_0/spectre/v8_0_1/lpmos/models/mos/pmma_bjt.scs
Reading file:  /pkg/xfab/XKIT/xh018/cadence/v8_0/spectre/v8_0_1/lpmos/models/mos/nedi.scs
Reading file:  /pkg/xfab/XKIT/xh018/cadence/v8_0/spectre/v8_0_1/lpmos/models/mos/nedi_bjt.scs
Reading file:  /pkg/xfab/XKIT/xh018/cadence/v8_0/spectre/v8_0_1/lpmos/models/mos/nedia.scs
Reading file:  /pkg/xfab/XKIT/xh018/cadence/v8_0/spectre/v8_0_1/lpmos/models/mos/nedia_bjt.scs
Reading file:  /pkg/xfab/XKIT/xh018/cadence/v8_0/spectre/v8_0_1/lpmos/models/mos/ped2.scs
Reading file:  /pkg/xfab/XKIT/xh018/cadence/v8_0/spectre/v8_0_1/lpmos/models/mos/ped2_bjt.scs
Reading file:  /pkg/xfab/XKIT/xh018/cadence/v8_0/spectre/v8_0_1/lpmos/models/mos/ped.scs
Reading file:  /pkg/xfab/XKIT/xh018/cadence/v8_0/spectre/v8_0_1/lpmos/models/mos/ped_bjt.scs
Reading file:  /pkg/xfab/XKIT/xh018/cadence/v8_0/spectre/v8_0_1/lpmos/models/mos/nhv.scs
Reading file:  /pkg/xfab/XKIT/xh018/cadence/v8_0/spectre/v8_0_1/lpmos/models/mos/nhv_mos2.scs
Reading file:  /pkg/xfab/XKIT/xh018/cadence/v8_0/spectre/v8_0_1/lpmos/models/mos/nhv_bjt.scs
Reading file:  /pkg/xfab/XKIT/xh018/cadence/v8_0/spectre/v8_0_1/lpmos/models/mos/nhhv.scs
Reading file:  /pkg/xfab/XKIT/xh018/cadence/v8_0/spectre/v8_0_1/lpmos/models/mos/nhhv_mos2.scs
Reading file:  /pkg/xfab/XKIT/xh018/cadence/v8_0/spectre/v8_0_1/lpmos/models/mos/nhhv_bjt.scs
Reading file:  /pkg/xfab/XKIT/xh018/cadence/v8_0/spectre/v8_0_1/lpmos/models/mos/nmmc.scs
Reading file:  /pkg/xfab/XKIT/xh018/cadence/v8_0/spectre/v8_0_1/lpmos/models/mos/nmmc_mos2.scs
Reading file:  /pkg/xfab/XKIT/xh018/cadence/v8_0/spectre/v8_0_1/lpmos/models/mos/nmmc_bjt.scs
Reading file:  /pkg/xfab/XKIT/xh018/cadence/v8_0/spectre/v8_0_1/lpmos/models/mos/nmmd.scs
Reading file:  /pkg/xfab/XKIT/xh018/cadence/v8_0/spectre/v8_0_1/lpmos/models/mos/nmmd_mos2.scs
Reading file:  /pkg/xfab/XKIT/xh018/cadence/v8_0/spectre/v8_0_1/lpmos/models/mos/nmmd_bjt.scs
Reading file:  /pkg/xfab/XKIT/xh018/cadence/v8_0/spectre/v8_0_1/lpmos/models/mos/nmc.scs
Reading file:  /pkg/xfab/XKIT/xh018/cadence/v8_0/spectre/v8_0_1/lpmos/models/mos/nmc_mos2.scs
Reading file:  /pkg/xfab/XKIT/xh018/cadence/v8_0/spectre/v8_0_1/lpmos/models/mos/nmc_bjt.scs
Reading file:  /pkg/xfab/XKIT/xh018/cadence/v8_0/spectre/v8_0_1/lpmos/models/mos/nma.scs
Reading file:  /pkg/xfab/XKIT/xh018/cadence/v8_0/spectre/v8_0_1/lpmos/models/mos/nma_bjt.scs
Reading file:  /pkg/xfab/XKIT/xh018/cadence/v8_0/spectre/v8_0_1/lpmos/models/mos/phv.scs
Reading file:  /pkg/xfab/XKIT/xh018/cadence/v8_0/spectre/v8_0_1/lpmos/models/mos/phv_mos2.scs
Reading file:  /pkg/xfab/XKIT/xh018/cadence/v8_0/spectre/v8_0_1/lpmos/models/mos/phv_bjt.scs
Reading file:  /pkg/xfab/XKIT/xh018/cadence/v8_0/spectre/v8_0_1/lpmos/models/mos/phhv.scs
Reading file:  /pkg/xfab/XKIT/xh018/cadence/v8_0/spectre/v8_0_1/lpmos/models/mos/phhv_mos2.scs
Reading file:  /pkg/xfab/XKIT/xh018/cadence/v8_0/spectre/v8_0_1/lpmos/models/mos/phhv_bjt.scs
Reading file:  /pkg/xfab/XKIT/xh018/cadence/v8_0/spectre/v8_0_1/lpmos/models/mos/pmc.scs
Reading file:  /pkg/xfab/XKIT/xh018/cadence/v8_0/spectre/v8_0_1/lpmos/models/mos/pmc_mos2.scs
Reading file:  /pkg/xfab/XKIT/xh018/cadence/v8_0/spectre/v8_0_1/lpmos/models/mos/pmc_bjt.scs
Reading file:  /pkg/xfab/XKIT/xh018/cadence/v8_0/spectre/v8_0_1/lpmos/models/mos/pmmc.scs
Reading file:  /pkg/xfab/XKIT/xh018/cadence/v8_0/spectre/v8_0_1/lpmos/models/mos/pmmc_mos2.scs
Reading file:  /pkg/xfab/XKIT/xh018/cadence/v8_0/spectre/v8_0_1/lpmos/models/mos/pmmc_bjt.scs
Reading file:  /pkg/xfab/XKIT/xh018/cadence/v8_0/spectre/v8_0_1/lpmos/models/mos/pma.scs
Reading file:  /pkg/xfab/XKIT/xh018/cadence/v8_0/spectre/v8_0_1/lpmos/models/mos/pma_bjt.scs
Reading file:  /pkg/xfab/XKIT/xh018/cadence/v8_0/spectre/v8_0_1/lpmos/models/mos/pmb.scs
Reading file:  /pkg/xfab/XKIT/xh018/cadence/v8_0/spectre/v8_0_1/lpmos/models/mos/nesvt.scs
Reading file:  /pkg/xfab/XKIT/xh018/cadence/v8_0/spectre/v8_0_1/lpmos/models/mos/nesvti.scs
Reading file:  /pkg/xfab/XKIT/xh018/cadence/v8_0/spectre/v8_0_1/lpmos/models/mos/nesvti_6.scs
Reading file:  /pkg/xfab/XKIT/xh018/cadence/v8_0/spectre/v8_0_1/lpmos/models/mos/nesvti_m_6.scs
Reading file:  /pkg/xfab/XKIT/xh018/cadence/v8_0/spectre/v8_0_1/lpmos/models/mos/pesvt.scs
Reading file:  /pkg/xfab/XKIT/xh018/cadence/v8_0/spectre/v8_0_1/lpmos/models/mos/pesvt_5.scs
Reading file:  /pkg/xfab/XKIT/xh018/cadence/v8_0/spectre/v8_0_1/lpmos/models/mos/pesvti.scs
Reading file:  /pkg/xfab/XKIT/xh018/cadence/v8_0/spectre/v8_0_1/lpmos/models/mos/pesvti_5.scs
Reading file:  /pkg/xfab/XKIT/xh018/cadence/v8_0/spectre/v8_0_1/lpmos/models/mos/pesvti_m_5.scs
Reading file:  /pkg/xfab/XKIT/xh018/cadence/v8_0/spectre/v8_0_1/lpmos/models/mos/nhvd.scs
Reading file:  /pkg/xfab/XKIT/xh018/cadence/v8_0/spectre/v8_0_1/lpmos/models/mos/nhvd_bjt.scs
Reading file:  /pkg/xfab/XKIT/xh018/cadence/v8_0/spectre/v8_0_1/lpmos/models/mos/nhhvd.scs
Reading file:  /pkg/xfab/XKIT/xh018/cadence/v8_0/spectre/v8_0_1/lpmos/models/mos/nhhvd_bjt.scs
Reading file:  /pkg/xfab/XKIT/xh018/cadence/v8_0/spectre/v8_0_1/lpmos/photo.scs
Reading file:  /pkg/xfab/XKIT/xh018/cadence/v8_0/spectre/v8_0_1/lpmos/models/photo/tm_pho.scs
Reading file:  /pkg/xfab/XKIT/xh018/cadence/v8_0/spectre/v8_0_1/lpmos/models/photo/dphoa.scs
Reading file:  /pkg/xfab/XKIT/xh018/cadence/v8_0/spectre/v8_0_1/lpmos/models/photo/dpho.va
Reading link:  /pkg/cadence/installs/SPECTRE181/tools.lnx86/spectre/etc/ahdl/constants.h
Reading file:  /pkg/cadence/installs/SPECTRE181/tools.lnx86/spectre/etc/ahdl/constants.vams
Reading link:  /pkg/cadence/installs/SPECTRE181/tools.lnx86/spectre/etc/ahdl/discipline.h
Reading file:  /pkg/cadence/installs/SPECTRE181/tools.lnx86/spectre/etc/ahdl/disciplines.vams
Reading file:  /pkg/xfab/XKIT/xh018/cadence/v8_0/spectre/v8_0_1/lpmos/models/photo/dphob.scs
Reading file:  /pkg/xfab/XKIT/xh018/cadence/v8_0/spectre/v8_0_1/lpmos/models/photo/dphoc.scs
Reading file:  /pkg/xfab/XKIT/xh018/cadence/v8_0/spectre/v8_0_1/lpmos/models/photo/iphoto_uv.va
Reading file:  /pkg/xfab/XKIT/xh018/cadence/v8_0/spectre/v8_0_1/lpmos/models/photo/dphoc_cat.scs
Reading file:  /pkg/xfab/XKIT/xh018/cadence/v8_0/spectre/v8_0_1/lpmos/models/photo/dphoc0.scs
Reading file:  /pkg/xfab/XKIT/xh018/cadence/v8_0/spectre/v8_0_1/lpmos/models/photo/dphoc0_cat.scs
Reading file:  /pkg/xfab/XKIT/xh018/cadence/v8_0/spectre/v8_0_1/lpmos/models/photo/dphocfp.scs
Reading file:  /pkg/xfab/XKIT/xh018/cadence/v8_0/spectre/v8_0_1/lpmos/models/photo/dphocfp_cat.scs
Reading file:  /pkg/xfab/XKIT/xh018/cadence/v8_0/spectre/v8_0_1/lpmos/models/photo/dphod.scs
Reading file:  /pkg/xfab/XKIT/xh018/cadence/v8_0/spectre/v8_0_1/lpmos/models/photo/dphod_an1.scs
Reading file:  /pkg/xfab/XKIT/xh018/cadence/v8_0/spectre/v8_0_1/lpmos/models/photo/dphod_an2.scs
Reading file:  /pkg/xfab/XKIT/xh018/cadence/v8_0/spectre/v8_0_1/lpmos/models/photo/dphod0.scs
Reading file:  /pkg/xfab/XKIT/xh018/cadence/v8_0/spectre/v8_0_1/lpmos/models/photo/dphod0_an1.scs
Reading file:  /pkg/xfab/XKIT/xh018/cadence/v8_0/spectre/v8_0_1/lpmos/models/photo/dphod0_an2.scs
Reading file:  /pkg/xfab/XKIT/xh018/cadence/v8_0/spectre/v8_0_1/lpmos/models/photo/dphodfp.scs
Reading file:  /pkg/xfab/XKIT/xh018/cadence/v8_0/spectre/v8_0_1/lpmos/models/photo/dphodfp_an1.scs
Reading file:  /pkg/xfab/XKIT/xh018/cadence/v8_0/spectre/v8_0_1/lpmos/models/photo/dphodfp_an2.scs
Reading file:  /pkg/xfab/XKIT/xh018/cadence/v8_0/spectre/v8_0_1/lpmos/models/photo/dspada.scs
Reading file:  /pkg/xfab/XKIT/xh018/cadence/v8_0/spectre/v8_0_1/lpmos/models/photo/ispad.va
Reading file:  /pkg/xfab/XKIT/xh018/cadence/v8_0/spectre/v8_0_1/lpmos/models/photo/dspada_cat.scs
Reading file:  /pkg/xfab/XKIT/xh018/cadence/v8_0/spectre/v8_0_1/lpmos/models/photo/dspada0.scs
Reading file:  /pkg/xfab/XKIT/xh018/cadence/v8_0/spectre/v8_0_1/lpmos/models/photo/dapda.scs
Reading file:  /pkg/xfab/XKIT/xh018/cadence/v8_0/spectre/v8_0_1/lpmos/models/photo/iphoto_apd.va
Reading file:  /pkg/xfab/XKIT/xh018/cadence/v8_0/spectre/v8_0_1/lpmos/models/photo/dapda_cat.scs
Reading file:  /pkg/xfab/XKIT/xh018/cadence/v8_0/spectre/v8_0_1/lpmos/models/photo/dapda0.scs
Reading file:  /pkg/xfab/XKIT/xh018/cadence/v8_0/spectre/v8_0_1/lpmos/res.scs
Reading file:  /pkg/xfab/XKIT/xh018/cadence/v8_0/spectre/v8_0_1/lpmos/models/res/ws_res.scs
Reading file:  /pkg/xfab/XKIT/xh018/cadence/v8_0/spectre/v8_0_1/lpmos/models/res/rdn.scs
Reading file:  /pkg/xfab/XKIT/xh018/cadence/v8_0/spectre/v8_0_1/lpmos/models/res/rdn_esd.scs
Reading file:  /pkg/xfab/XKIT/xh018/cadence/v8_0/spectre/v8_0_1/lpmos/models/res/rdp.scs
Reading file:  /pkg/xfab/XKIT/xh018/cadence/v8_0/spectre/v8_0_1/lpmos/models/res/rdp_io.scs
Reading file:  /pkg/xfab/XKIT/xh018/cadence/v8_0/spectre/v8_0_1/lpmos/models/res/rdp_esd.scs
Reading file:  /pkg/xfab/XKIT/xh018/cadence/v8_0/spectre/v8_0_1/lpmos/models/res/rnw.scs
Reading file:  /pkg/xfab/XKIT/xh018/cadence/v8_0/spectre/v8_0_1/lpmos/models/res/rnw_scr.scs
Reading file:  /pkg/xfab/XKIT/xh018/cadence/v8_0/spectre/v8_0_1/lpmos/models/res/rdn3.scs
Reading file:  /pkg/xfab/XKIT/xh018/cadence/v8_0/spectre/v8_0_1/lpmos/models/res/rdp3.scs
Reading file:  /pkg/xfab/XKIT/xh018/cadence/v8_0/spectre/v8_0_1/lpmos/models/res/rnw3.scs
Reading file:  /pkg/xfab/XKIT/xh018/cadence/v8_0/spectre/v8_0_1/lpmos/models/res/rnw3_scr.scs
Reading file:  /pkg/xfab/XKIT/xh018/cadence/v8_0/spectre/v8_0_1/lpmos/models/res/rdnwmv.scs
Reading file:  /pkg/xfab/XKIT/xh018/cadence/v8_0/spectre/v8_0_1/lpmos/models/res/rnp1.scs
Reading file:  /pkg/xfab/XKIT/xh018/cadence/v8_0/spectre/v8_0_1/lpmos/models/res/rnp1_3.scs
Reading file:  /pkg/xfab/XKIT/xh018/cadence/v8_0/spectre/v8_0_1/lpmos/models/res/rpp1.scs
Reading file:  /pkg/xfab/XKIT/xh018/cadence/v8_0/spectre/v8_0_1/lpmos/models/res/rpp1_3.scs
Reading file:  /pkg/xfab/XKIT/xh018/cadence/v8_0/spectre/v8_0_1/lpmos/models/res/rpp1s.scs
Reading file:  /pkg/xfab/XKIT/xh018/cadence/v8_0/spectre/v8_0_1/lpmos/models/res/rpp1s_3.scs
Reading file:  /pkg/xfab/XKIT/xh018/cadence/v8_0/spectre/v8_0_1/lpmos/models/res/rnp1h.scs
Reading file:  /pkg/xfab/XKIT/xh018/cadence/v8_0/spectre/v8_0_1/lpmos/models/res/rnp1h_3.scs
Reading file:  /pkg/xfab/XKIT/xh018/cadence/v8_0/spectre/v8_0_1/lpmos/models/res/rpp1k1.scs
Reading file:  /pkg/xfab/XKIT/xh018/cadence/v8_0/spectre/v8_0_1/lpmos/models/res/rpp1k1_3.scs
Reading file:  /pkg/xfab/XKIT/xh018/cadence/v8_0/spectre/v8_0_1/lpmos/models/res/rctdn.scs
Reading file:  /pkg/xfab/XKIT/xh018/cadence/v8_0/spectre/v8_0_1/lpmos/models/res/rctdp.scs
Reading file:  /pkg/xfab/XKIT/xh018/cadence/v8_0/spectre/v8_0_1/lpmos/models/res/rctp1.scs
Reading file:  /pkg/xfab/XKIT/xh018/cadence/v8_0/spectre/v8_0_1/lpmos/models/res/rsildn.scs
Reading file:  /pkg/xfab/XKIT/xh018/cadence/v8_0/spectre/v8_0_1/lpmos/models/res/rsildp.scs
Reading file:  /pkg/xfab/XKIT/xh018/cadence/v8_0/spectre/v8_0_1/lpmos/models/res/rsilnp1.scs
Reading file:  /pkg/xfab/XKIT/xh018/cadence/v8_0/spectre/v8_0_1/lpmos/models/res/rsilpp1.scs
Reading file:  /pkg/xfab/XKIT/xh018/cadence/v8_0/spectre/v8_0_1/lpmos/models/res/rsbdn.scs
Reading file:  /pkg/xfab/XKIT/xh018/cadence/v8_0/spectre/v8_0_1/lpmos/models/res/rsbdp.scs
Reading file:  /pkg/xfab/XKIT/xh018/cadence/v8_0/spectre/v8_0_1/lpmos/models/res/rsbdn3.scs
Reading file:  /pkg/xfab/XKIT/xh018/cadence/v8_0/spectre/v8_0_1/lpmos/models/res/rsbdp3.scs
Reading file:  /pkg/xfab/XKIT/xh018/cadence/v8_0/spectre/v8_0_1/lpmos/models/res/rsbnp1.scs
Reading file:  /pkg/xfab/XKIT/xh018/cadence/v8_0/spectre/v8_0_1/lpmos/models/res/rsbpp1.scs
Reading file:  /pkg/xfab/XKIT/xh018/cadence/v8_0/spectre/v8_0_1/lpmos/models/res/rsbpp1k1.scs
Reading file:  /pkg/xfab/XKIT/xh018/cadence/v8_0/spectre/v8_0_1/lpmos/models/res/rm1.scs
Reading file:  /pkg/xfab/XKIT/xh018/cadence/v8_0/spectre/v8_0_1/lpmos/models/res/rm2.scs
Reading file:  /pkg/xfab/XKIT/xh018/cadence/v8_0/spectre/v8_0_1/lpmos/models/res/rm3.scs
Reading file:  /pkg/xfab/XKIT/xh018/cadence/v8_0/spectre/v8_0_1/lpmos/models/res/rm4.scs
Reading file:  /pkg/xfab/XKIT/xh018/cadence/v8_0/spectre/v8_0_1/lpmos/models/res/rm5.scs
Reading file:  /pkg/xfab/XKIT/xh018/cadence/v8_0/spectre/v8_0_1/lpmos/models/res/rmtp.scs
Reading file:  /pkg/xfab/XKIT/xh018/cadence/v8_0/spectre/v8_0_1/lpmos/models/res/rmtpl.scs
Reading file:  /pkg/xfab/XKIT/xh018/cadence/v8_0/spectre/v8_0_1/lpmos/models/res/pfuse.scs
Reading file:  /pkg/xfab/XKIT/xh018/cadence/v8_0/spectre/v8_0_1/lpmos/models/res/s_res.scs
Time for NDB Parsing: CPU = 409.781 ms, elapsed = 557.272 ms.
Time accumulated: CPU = 456.975 ms, elapsed = 557.284 ms.
Peak resident memory used = 68.3 Mbytes.

Time for Elaboration: CPU = 42.837 ms, elapsed = 42.8412 ms.
Time accumulated: CPU = 499.974 ms, elapsed = 600.286 ms.
Peak resident memory used = 78.5 Mbytes.


Warning from spectre during hierarchy flattening.
    WARNING (SPECTRE-17101): The value 'psf' specified using the 'checklimitdest' option will no longer be supported in future releases.


Time for EDB Visiting: CPU = 4.227 ms, elapsed = 4.22812 ms.
Time accumulated: CPU = 504.354 ms, elapsed = 604.666 ms.
Peak resident memory used = 79.7 Mbytes.


Notice from spectre during initial setup.
    Multithreading is disabled due to the size of the design being too small.


Global user options:
         psfversion = 1.1.0
            vabstol = 1e-06
            iabstol = 1e-12
               temp = 27
           homotopy = 7
              limit = delta
         compatible = spice2
               gmin = 1e-12
             rforce = 1
           maxnotes = 5
           maxwarns = 5
             digits = 5
               cols = 80
             pivrel = 0.001
           sensfile = ../psf/sens.output
     checklimitdest = psf
               save = allpub
             reltol = 0.0001
               tnom = 27
             scalem = 1
              scale = 1

Scoped user options:

Circuit inventory:
              nodes 57
            bsim3v3 48    
          capacitor 13    
             iprobe 4     
            isource 2     
           resistor 16    
            vsource 7     

Analysis and control statement inventory:
                 ac 1     
                 dc 1     
               info 8     
               tran 1     

Output statements:
             .probe 0     
           .measure 0     
               save 1     


Notice from spectre during initial setup.
    1 vsources are short because their absolute value is less than or equal to 'vabsshort'.
    Fast APS Enabled.

Time for parsing: CPU = 4.434 ms, elapsed = 8.79598 ms.
Time accumulated: CPU = 508.917 ms, elapsed = 613.591 ms.
Peak resident memory used = 81.4 Mbytes.

~~~~~~~~~~~~~~~~~~~~~~
Pre-Simulation Summary
~~~~~~~~~~~~~~~~~~~~~~
~~~~~~~~~~~~~~~~~~~~~~

********************************************
AC Analysis `ac': freq = (10 mHz -> 100 MHz)
********************************************

Notice from spectre during DC analysis, during AC analysis `ac'.
    Bad pivoting is found during DC analysis. Option dc_pivot_check=yes is recommended for possible improvement of convergence.

DC simulation time: CPU = 2.366 ms, elapsed = 2.36511 ms.

Opening the PSF file ../psf/ac.ac ...
    ac: freq = 17.78 mHz    (2.5 %), step = 1.934 mHz    (500 m%)
    ac: freq = 19.95 mHz      (3 %), step = 2.17 mHz     (500 m%)
    ac: freq = 22.39 mHz    (3.5 %), step = 2.435 mHz    (500 m%)
    ac: freq = 25.12 mHz      (4 %), step = 2.732 mHz    (500 m%)
    ac: freq = 28.18 mHz    (4.5 %), step = 3.065 mHz    (500 m%)
    ac: freq = 31.62 mHz      (5 %), step = 3.439 mHz    (500 m%)
    ac: freq = 35.48 mHz    (5.5 %), step = 3.859 mHz    (500 m%)
    ac: freq = 39.81 mHz      (6 %), step = 4.329 mHz    (500 m%)
    ac: freq = 44.67 mHz    (6.5 %), step = 4.858 mHz    (500 m%)
    ac: freq = 50.12 mHz      (7 %), step = 5.45 mHz     (500 m%)
    ac: freq = 56.23 mHz    (7.5 %), step = 6.115 mHz    (500 m%)
    ac: freq = 63.1 mHz       (8 %), step = 6.862 mHz    (500 m%)
    ac: freq = 70.79 mHz    (8.5 %), step = 7.699 mHz    (500 m%)
    ac: freq = 79.43 mHz      (9 %), step = 8.638 mHz    (500 m%)
    ac: freq = 89.13 mHz    (9.5 %), step = 9.692 mHz    (500 m%)
    ac: freq = 100 mHz       (10 %), step = 10.87 mHz    (500 m%)
    ac: freq = 112.2 mHz   (10.5 %), step = 12.2 mHz     (500 m%)
    ac: freq = 125.9 mHz     (11 %), step = 13.69 mHz    (500 m%)
    ac: freq = 141.3 mHz   (11.5 %), step = 15.36 mHz    (500 m%)
    ac: freq = 158.5 mHz     (12 %), step = 17.24 mHz    (500 m%)
    ac: freq = 177.8 mHz   (12.5 %), step = 19.34 mHz    (500 m%)
    ac: freq = 199.5 mHz     (13 %), step = 21.7 mHz     (500 m%)
    ac: freq = 223.9 mHz   (13.5 %), step = 24.35 mHz    (500 m%)
    ac: freq = 251.2 mHz     (14 %), step = 27.32 mHz    (500 m%)
    ac: freq = 281.8 mHz   (14.5 %), step = 30.65 mHz    (500 m%)
    ac: freq = 316.2 mHz     (15 %), step = 34.39 mHz    (500 m%)
    ac: freq = 354.8 mHz   (15.5 %), step = 38.59 mHz    (500 m%)
    ac: freq = 398.1 mHz     (16 %), step = 43.29 mHz    (500 m%)
    ac: freq = 446.7 mHz   (16.5 %), step = 48.58 mHz    (500 m%)
    ac: freq = 501.2 mHz     (17 %), step = 54.5 mHz     (500 m%)
    ac: freq = 562.3 mHz   (17.5 %), step = 61.15 mHz    (500 m%)
    ac: freq = 631 mHz       (18 %), step = 68.62 mHz    (500 m%)
    ac: freq = 707.9 mHz   (18.5 %), step = 76.99 mHz    (500 m%)
    ac: freq = 794.3 mHz     (19 %), step = 86.38 mHz    (500 m%)
    ac: freq = 891.3 mHz   (19.5 %), step = 96.92 mHz    (500 m%)
    ac: freq = 1 Hz          (20 %), step = 108.7 mHz    (500 m%)
    ac: freq = 1.122 Hz    (20.5 %), step = 122 mHz      (500 m%)
    ac: freq = 1.259 Hz      (21 %), step = 136.9 mHz    (500 m%)
    ac: freq = 1.413 Hz    (21.5 %), step = 153.6 mHz    (500 m%)
    ac: freq = 1.585 Hz      (22 %), step = 172.4 mHz    (500 m%)
    ac: freq = 1.778 Hz    (22.5 %), step = 193.4 mHz    (500 m%)
    ac: freq = 1.995 Hz      (23 %), step = 217 mHz      (500 m%)
    ac: freq = 2.239 Hz    (23.5 %), step = 243.5 mHz    (500 m%)
    ac: freq = 2.512 Hz      (24 %), step = 273.2 mHz    (500 m%)
    ac: freq = 2.818 Hz    (24.5 %), step = 306.5 mHz    (500 m%)
    ac: freq = 3.162 Hz      (25 %), step = 343.9 mHz    (500 m%)
    ac: freq = 3.548 Hz    (25.5 %), step = 385.9 mHz    (500 m%)
    ac: freq = 3.981 Hz      (26 %), step = 432.9 mHz    (500 m%)
    ac: freq = 4.467 Hz    (26.5 %), step = 485.8 mHz    (500 m%)
    ac: freq = 5.012 Hz      (27 %), step = 545 mHz      (500 m%)
    ac: freq = 5.623 Hz    (27.5 %), step = 611.5 mHz    (500 m%)
    ac: freq = 6.31 Hz       (28 %), step = 686.2 mHz    (500 m%)
    ac: freq = 7.079 Hz    (28.5 %), step = 769.9 mHz    (500 m%)
    ac: freq = 7.943 Hz      (29 %), step = 863.8 mHz    (500 m%)
    ac: freq = 8.913 Hz    (29.5 %), step = 969.2 mHz    (500 m%)
    ac: freq = 10 Hz         (30 %), step = 1.087 Hz     (500 m%)
    ac: freq = 11.22 Hz    (30.5 %), step = 1.22 Hz      (500 m%)
    ac: freq = 12.59 Hz      (31 %), step = 1.369 Hz     (500 m%)
    ac: freq = 14.13 Hz    (31.5 %), step = 1.536 Hz     (500 m%)
    ac: freq = 15.85 Hz      (32 %), step = 1.724 Hz     (500 m%)
    ac: freq = 17.78 Hz    (32.5 %), step = 1.934 Hz     (500 m%)
    ac: freq = 19.95 Hz      (33 %), step = 2.17 Hz      (500 m%)
    ac: freq = 22.39 Hz    (33.5 %), step = 2.435 Hz     (500 m%)
    ac: freq = 25.12 Hz      (34 %), step = 2.732 Hz     (500 m%)
    ac: freq = 28.18 Hz    (34.5 %), step = 3.065 Hz     (500 m%)
    ac: freq = 31.62 Hz      (35 %), step = 3.439 Hz     (500 m%)
    ac: freq = 35.48 Hz    (35.5 %), step = 3.859 Hz     (500 m%)
    ac: freq = 39.81 Hz      (36 %), step = 4.329 Hz     (500 m%)
    ac: freq = 44.67 Hz    (36.5 %), step = 4.858 Hz     (500 m%)
    ac: freq = 50.12 Hz      (37 %), step = 5.45 Hz      (500 m%)
    ac: freq = 56.23 Hz    (37.5 %), step = 6.115 Hz     (500 m%)
    ac: freq = 63.1 Hz       (38 %), step = 6.862 Hz     (500 m%)
    ac: freq = 70.79 Hz    (38.5 %), step = 7.699 Hz     (500 m%)
    ac: freq = 79.43 Hz      (39 %), step = 8.638 Hz     (500 m%)
    ac: freq = 89.13 Hz    (39.5 %), step = 9.692 Hz     (500 m%)
    ac: freq = 100 Hz        (40 %), step = 10.87 Hz     (500 m%)
    ac: freq = 112.2 Hz    (40.5 %), step = 12.2 Hz      (500 m%)
    ac: freq = 125.9 Hz      (41 %), step = 13.69 Hz     (500 m%)
    ac: freq = 141.3 Hz    (41.5 %), step = 15.36 Hz     (500 m%)
    ac: freq = 158.5 Hz      (42 %), step = 17.24 Hz     (500 m%)
    ac: freq = 177.8 Hz    (42.5 %), step = 19.34 Hz     (500 m%)
    ac: freq = 199.5 Hz      (43 %), step = 21.7 Hz      (500 m%)
    ac: freq = 223.9 Hz    (43.5 %), step = 24.35 Hz     (500 m%)
    ac: freq = 251.2 Hz      (44 %), step = 27.32 Hz     (500 m%)
    ac: freq = 281.8 Hz    (44.5 %), step = 30.65 Hz     (500 m%)
    ac: freq = 316.2 Hz      (45 %), step = 34.39 Hz     (500 m%)
    ac: freq = 354.8 Hz    (45.5 %), step = 38.59 Hz     (500 m%)
    ac: freq = 398.1 Hz      (46 %), step = 43.29 Hz     (500 m%)
    ac: freq = 446.7 Hz    (46.5 %), step = 48.58 Hz     (500 m%)
    ac: freq = 501.2 Hz      (47 %), step = 54.5 Hz      (500 m%)
    ac: freq = 562.3 Hz    (47.5 %), step = 61.15 Hz     (500 m%)
    ac: freq = 631 Hz        (48 %), step = 68.62 Hz     (500 m%)
    ac: freq = 707.9 Hz    (48.5 %), step = 76.99 Hz     (500 m%)
    ac: freq = 794.3 Hz      (49 %), step = 86.38 Hz     (500 m%)
    ac: freq = 891.3 Hz    (49.5 %), step = 96.92 Hz     (500 m%)
    ac: freq = 1 kHz         (50 %), step = 108.7 Hz     (500 m%)
    ac: freq = 1.122 kHz   (50.5 %), step = 122 Hz       (500 m%)
    ac: freq = 1.259 kHz     (51 %), step = 136.9 Hz     (500 m%)
    ac: freq = 1.413 kHz   (51.5 %), step = 153.6 Hz     (500 m%)
    ac: freq = 1.585 kHz     (52 %), step = 172.4 Hz     (500 m%)
    ac: freq = 1.778 kHz   (52.5 %), step = 193.4 Hz     (500 m%)
    ac: freq = 1.995 kHz     (53 %), step = 217 Hz       (500 m%)
    ac: freq = 2.239 kHz   (53.5 %), step = 243.5 Hz     (500 m%)
    ac: freq = 2.512 kHz     (54 %), step = 273.2 Hz     (500 m%)
    ac: freq = 2.818 kHz   (54.5 %), step = 306.5 Hz     (500 m%)
    ac: freq = 3.162 kHz     (55 %), step = 343.9 Hz     (500 m%)
    ac: freq = 3.548 kHz   (55.5 %), step = 385.9 Hz     (500 m%)
    ac: freq = 3.981 kHz     (56 %), step = 432.9 Hz     (500 m%)
    ac: freq = 4.467 kHz   (56.5 %), step = 485.8 Hz     (500 m%)
    ac: freq = 5.012 kHz     (57 %), step = 545 Hz       (500 m%)
    ac: freq = 5.623 kHz   (57.5 %), step = 611.5 Hz     (500 m%)
    ac: freq = 6.31 kHz      (58 %), step = 686.2 Hz     (500 m%)
    ac: freq = 7.079 kHz   (58.5 %), step = 769.9 Hz     (500 m%)
    ac: freq = 7.943 kHz     (59 %), step = 863.8 Hz     (500 m%)
    ac: freq = 8.913 kHz   (59.5 %), step = 969.2 Hz     (500 m%)
    ac: freq = 10 kHz        (60 %), step = 1.087 kHz    (500 m%)
    ac: freq = 11.22 kHz   (60.5 %), step = 1.22 kHz     (500 m%)
    ac: freq = 12.59 kHz     (61 %), step = 1.369 kHz    (500 m%)
    ac: freq = 14.13 kHz   (61.5 %), step = 1.536 kHz    (500 m%)
    ac: freq = 15.85 kHz     (62 %), step = 1.724 kHz    (500 m%)
    ac: freq = 17.78 kHz   (62.5 %), step = 1.934 kHz    (500 m%)
    ac: freq = 19.95 kHz     (63 %), step = 2.17 kHz     (500 m%)
    ac: freq = 22.39 kHz   (63.5 %), step = 2.435 kHz    (500 m%)
    ac: freq = 25.12 kHz     (64 %), step = 2.732 kHz    (500 m%)
    ac: freq = 28.18 kHz   (64.5 %), step = 3.065 kHz    (500 m%)
    ac: freq = 31.62 kHz     (65 %), step = 3.439 kHz    (500 m%)
    ac: freq = 35.48 kHz   (65.5 %), step = 3.859 kHz    (500 m%)
    ac: freq = 39.81 kHz     (66 %), step = 4.329 kHz    (500 m%)
    ac: freq = 44.67 kHz   (66.5 %), step = 4.858 kHz    (500 m%)
    ac: freq = 50.12 kHz     (67 %), step = 5.45 kHz     (500 m%)
    ac: freq = 56.23 kHz   (67.5 %), step = 6.115 kHz    (500 m%)
    ac: freq = 63.1 kHz      (68 %), step = 6.862 kHz    (500 m%)
    ac: freq = 70.79 kHz   (68.5 %), step = 7.699 kHz    (500 m%)
    ac: freq = 79.43 kHz     (69 %), step = 8.638 kHz    (500 m%)
    ac: freq = 89.13 kHz   (69.5 %), step = 9.692 kHz    (500 m%)
    ac: freq = 100 kHz       (70 %), step = 10.87 kHz    (500 m%)
    ac: freq = 112.2 kHz   (70.5 %), step = 12.2 kHz     (500 m%)
    ac: freq = 125.9 kHz     (71 %), step = 13.69 kHz    (500 m%)
    ac: freq = 141.3 kHz   (71.5 %), step = 15.36 kHz    (500 m%)
    ac: freq = 158.5 kHz     (72 %), step = 17.24 kHz    (500 m%)
    ac: freq = 177.8 kHz   (72.5 %), step = 19.34 kHz    (500 m%)
    ac: freq = 199.5 kHz     (73 %), step = 21.7 kHz     (500 m%)
    ac: freq = 223.9 kHz   (73.5 %), step = 24.35 kHz    (500 m%)
    ac: freq = 251.2 kHz     (74 %), step = 27.32 kHz    (500 m%)
    ac: freq = 281.8 kHz   (74.5 %), step = 30.65 kHz    (500 m%)
    ac: freq = 316.2 kHz     (75 %), step = 34.39 kHz    (500 m%)
    ac: freq = 354.8 kHz   (75.5 %), step = 38.59 kHz    (500 m%)
    ac: freq = 398.1 kHz     (76 %), step = 43.29 kHz    (500 m%)
    ac: freq = 446.7 kHz   (76.5 %), step = 48.58 kHz    (500 m%)
    ac: freq = 501.2 kHz     (77 %), step = 54.5 kHz     (500 m%)
    ac: freq = 562.3 kHz   (77.5 %), step = 61.15 kHz    (500 m%)
    ac: freq = 631 kHz       (78 %), step = 68.62 kHz    (500 m%)
    ac: freq = 707.9 kHz   (78.5 %), step = 76.99 kHz    (500 m%)
    ac: freq = 794.3 kHz     (79 %), step = 86.38 kHz    (500 m%)
    ac: freq = 891.3 kHz   (79.5 %), step = 96.92 kHz    (500 m%)
    ac: freq = 1 MHz         (80 %), step = 108.7 kHz    (500 m%)
    ac: freq = 1.122 MHz   (80.5 %), step = 122 kHz      (500 m%)
    ac: freq = 1.259 MHz     (81 %), step = 136.9 kHz    (500 m%)
    ac: freq = 1.413 MHz   (81.5 %), step = 153.6 kHz    (500 m%)
    ac: freq = 1.585 MHz     (82 %), step = 172.4 kHz    (500 m%)
    ac: freq = 1.778 MHz   (82.5 %), step = 193.4 kHz    (500 m%)
    ac: freq = 1.995 MHz     (83 %), step = 217 kHz      (500 m%)
    ac: freq = 2.239 MHz   (83.5 %), step = 243.5 kHz    (500 m%)
    ac: freq = 2.512 MHz     (84 %), step = 273.2 kHz    (500 m%)
    ac: freq = 2.818 MHz   (84.5 %), step = 306.5 kHz    (500 m%)
    ac: freq = 3.162 MHz     (85 %), step = 343.9 kHz    (500 m%)
    ac: freq = 3.548 MHz   (85.5 %), step = 385.9 kHz    (500 m%)
    ac: freq = 3.981 MHz     (86 %), step = 432.9 kHz    (500 m%)
    ac: freq = 4.467 MHz   (86.5 %), step = 485.8 kHz    (500 m%)
    ac: freq = 5.012 MHz     (87 %), step = 545 kHz      (500 m%)
    ac: freq = 5.623 MHz   (87.5 %), step = 611.5 kHz    (500 m%)
    ac: freq = 6.31 MHz      (88 %), step = 686.2 kHz    (500 m%)
    ac: freq = 7.079 MHz   (88.5 %), step = 769.9 kHz    (500 m%)
    ac: freq = 7.943 MHz     (89 %), step = 863.8 kHz    (500 m%)
    ac: freq = 8.913 MHz   (89.5 %), step = 969.2 kHz    (500 m%)
    ac: freq = 10 MHz        (90 %), step = 1.087 MHz    (500 m%)
    ac: freq = 11.22 MHz   (90.5 %), step = 1.22 MHz     (500 m%)
    ac: freq = 12.59 MHz     (91 %), step = 1.369 MHz    (500 m%)
    ac: freq = 14.13 MHz   (91.5 %), step = 1.536 MHz    (500 m%)
    ac: freq = 15.85 MHz     (92 %), step = 1.724 MHz    (500 m%)
    ac: freq = 17.78 MHz   (92.5 %), step = 1.934 MHz    (500 m%)
    ac: freq = 19.95 MHz     (93 %), step = 2.17 MHz     (500 m%)
    ac: freq = 22.39 MHz   (93.5 %), step = 2.435 MHz    (500 m%)
    ac: freq = 25.12 MHz     (94 %), step = 2.732 MHz    (500 m%)
    ac: freq = 28.18 MHz   (94.5 %), step = 3.065 MHz    (500 m%)
    ac: freq = 31.62 MHz     (95 %), step = 3.439 MHz    (500 m%)
    ac: freq = 35.48 MHz   (95.5 %), step = 3.859 MHz    (500 m%)
    ac: freq = 39.81 MHz     (96 %), step = 4.329 MHz    (500 m%)
    ac: freq = 44.67 MHz   (96.5 %), step = 4.858 MHz    (500 m%)
    ac: freq = 50.12 MHz     (97 %), step = 5.45 MHz     (500 m%)
    ac: freq = 56.23 MHz   (97.5 %), step = 6.115 MHz    (500 m%)
    ac: freq = 63.1 MHz      (98 %), step = 6.862 MHz    (500 m%)
    ac: freq = 70.79 MHz   (98.5 %), step = 7.699 MHz    (500 m%)
    ac: freq = 79.43 MHz     (99 %), step = 8.638 MHz    (500 m%)
    ac: freq = 89.13 MHz   (99.5 %), step = 9.692 MHz    (500 m%)
    ac: freq = 100 MHz      (100 %), step = 10.87 MHz    (500 m%)
Accumulated DC solution time =            0 s.
Intrinsic ac analysis time =              0 s.
Total time required for ac analysis `ac': CPU = 31.923 ms, elapsed = 34.2531 ms.
Time accumulated: CPU = 548.164 ms, elapsed = 655.172 ms.
Peak resident memory used = 82.9 Mbytes.


***********************************************
Transient Analysis `tran': time = (0 s -> 5 ms)
***********************************************
DC simulation time: CPU = 748 us, elapsed = 748.873 us.

Opening the PSFXL file ../psf/tran.tran.tran ...
Important parameter values:
    start = 0 s
    outputstart = 0 s
    stop = 5 ms
    step = 5 us
    maxstep = 50 us
    ic = all
    useprevic = no
    skipdc = no
    reltol = 10e-06
    abstol(V) = 1 uV
    abstol(I) = 1 pA
    temp = 27 C
    tnom = 27 C
    tempeffects = all
    errpreset = conservative_sigglobal
    method = gear2only
    lteratio = 10
    relref = sigglobal
    cmin = 0 F
    gmin = 1 pS
    rabsshort = 1 mOhm


Notice from spectre during transient analysis `tran'.
    Multithreading is disabled due to the size of the design being too small.


Output and IC/nodeset summary:
                 save   10      (current)
                 save   57      (voltage)

    tran: time = 160.3 us    (3.21 %), step = 50 us           (1 %)
    tran: time = 410.3 us    (8.21 %), step = 50 us           (1 %)
    tran: time = 660.3 us    (13.2 %), step = 50 us           (1 %)
    tran: time = 910.3 us    (18.2 %), step = 50 us           (1 %)
    tran: time = 1.161 ms    (23.2 %), step = 50 us           (1 %)
    tran: time = 1.411 ms    (28.2 %), step = 50 us           (1 %)
    tran: time = 1.661 ms    (33.2 %), step = 50 us           (1 %)
    tran: time = 1.911 ms    (38.2 %), step = 50 us           (1 %)
    tran: time = 2.16 ms     (43.2 %), step = 50 us           (1 %)
    tran: time = 2.41 ms     (48.2 %), step = 50 us           (1 %)
    tran: time = 2.66 ms     (53.2 %), step = 50 us           (1 %)
    tran: time = 2.91 ms     (58.2 %), step = 50 us           (1 %)
    tran: time = 3.161 ms    (63.2 %), step = 50 us           (1 %)
    tran: time = 3.411 ms    (68.2 %), step = 50 us           (1 %)
    tran: time = 3.661 ms    (73.2 %), step = 50 us           (1 %)
    tran: time = 3.911 ms    (78.2 %), step = 50 us           (1 %)
    tran: time = 4.16 ms     (83.2 %), step = 50 us           (1 %)
    tran: time = 4.41 ms     (88.2 %), step = 50 us           (1 %)
    tran: time = 4.66 ms     (93.2 %), step = 50 us           (1 %)
    tran: time = 4.91 ms     (98.2 %), step = 50 us           (1 %)
Number of accepted tran steps =             217

Maximum value achieved for any signal of each quantity: 
V: V(net020) = 1.8 V
I: I(V4:p) = 17.5 uA
If your circuit contains signals of the same quantity that are vastly different in size (such as high voltage circuitry combined with low voltage control circuitry), you should consider specifying global option `bin_relref=yes'.

~~~~~~~~~~~~~~~~~~~~~~~~~~~~~~~~~
Post-Transient Simulation Summary
~~~~~~~~~~~~~~~~~~~~~~~~~~~~~~~~~
   -   Non-default settings that could significantly slow down simulation
          errpreset = conservative_sigglobal, default moderate
          reltol = 10e-06, default 100e-06 (conservative)
   -   Features that may significantly slowing down simulation
          iprobe = 12.12 % of total equations
~~~~~~~~~~~~~~~~~~~~~~~~~~~~~~~~~


During simulation, the CPU load for active processors is :
        Spectre  8 (61.8 %)      9 (3.6 %)      10 (7.4 %)      11 (16.1 %)
                12 (8.8 %)      13 (7.3 %)      
        Other    0 (19.3 %)      1 (3.6 %)       3 (100.0 %)    21 (5.4 %)
Initial condition solution time: CPU = 813 us, elapsed = 823.975 us.
Intrinsic tran analysis time:    CPU = 40.527 ms, elapsed = 42.9699 ms.
Total time required for tran analysis `tran': CPU = 43.822 ms, elapsed = 46.2618 ms.
Time accumulated: CPU = 596.936 ms, elapsed = 709.087 ms.
Peak resident memory used = 84.8 Mbytes.

finalTimeOP: writing operating point information to rawfile.

Opening the PSF file ../psf/finalTimeOP.info ...

******************
DC Analysis `dcOp'
******************

Opening the PSF file ../psf/dcOp.dc ...
Important parameter values:
    reltol = 100e-06
    abstol(V) = 1 uV
    abstol(I) = 1 pA
    temp = 27 C
    tnom = 27 C
    tempeffects = all
    gmindc = 1 pS
    rabsshort = 1 mOhm

Notice from spectre during DC analysis `dcOp'.
    Bad pivoting is found during DC analysis. Option dc_pivot_check=yes is recommended for possible improvement of convergence.


Maximum value achieved for any signal of each quantity: 
V: V(net020) = 1.8 V
I: I(V4:p) = 17.39 uA
Convergence achieved in 12 iterations.
DC simulation time: CPU = 4.223 ms, elapsed = 6.57701 ms.
Total time required for dc analysis `dcOp': CPU = 4.286 ms, elapsed = 6.63805 ms.
Time accumulated: CPU = 607.757 ms, elapsed = 724.684 ms.
Peak resident memory used = 85 Mbytes.

dcOpInfo: writing operating point information to rawfile.

Opening the PSF file ../psf/dcOpInfo.info ...
modelParameter: writing model parameter values to rawfile.

Opening the PSF file ../psf/modelParameter.info ...
element: writing instance parameter values to rawfile.

Opening the PSF file ../psf/element.info ...
outputParameter: writing output parameter values to rawfile.

Opening the PSF file ../psf/outputParameter.info ...
designParamVals: writing netlist parameters to rawfile.

Opening the PSFASCII file ../psf/designParamVals.info ...
primitives: writing primitives to rawfile.

Opening the PSFASCII file ../psf/primitives.info.primitives ...
subckts: writing subcircuits to rawfile.

Opening the PSFASCII file ../psf/subckts.info.subckts ...

Aggregate audit (11:36:09 AM, Mon Oct 11, 2021):
Time used: CPU = 677 ms, elapsed = 820 ms, util. = 82.5%.
Time spent in licensing: elapsed = 29.6 ms.
Peak memory used = 85.8 Mbytes.
Simulation started at: 11:36:08 AM, Mon Oct 11, 2021, ended at: 11:36:09 AM, Mon Oct 11, 2021, with elapsed time (wall clock): 820 ms.
spectre completes with 0 errors, 1 warning, and 7 notices.


********* LOG ENDS **************
**                             **
**                             **
********* LOG STARTS ************



Spectre (R) Circuit Simulator
Version 18.1.0.516.isr12 64bit -- 25 Oct 2019
Copyright (C) 1989-2019 Cadence Design Systems, Inc. All rights reserved worldwide. Cadence and Spectre are registered trademarks of Cadence Design Systems, Inc. All others are the property of their respective holders.

Includes RSA BSAFE(R) Cryptographic or Security Protocol Software from RSA Security, Inc.

User: ykhuang   Host: s2424   HostID: ED824314   PID: 21468
Memory  available: 14.0513 GB  physical: 67.2863 GB
Linux   : CentOS Linux release 7.9.2009 (Core)
CPU Type: Intel(R) Xeon(R) CPU E5-2630 v3 @ 2.40GHz
        Socket: Processors [Frequency] (Hyperthreaded Processor)
        0:       0 [1200.0] ( 16 ),  1 [1199.9] ( 17 ),  2 [1200.0] ( 18 )
                 3 [3186.6] ( 19 ),  4 [1200.1] ( 20 ),  5 [1231.6] ( 21 )
                 6 [1200.0] ( 22 ),  7 [1200.1] ( 23 )
        1:       8 [1800.0] ( 24 ),  9 [1301.5] ( 25 ), 10 [1274.4] ( 26 )
                11 [1263.7] ( 27 ), 12 [1450.9] ( 28 ), 13 [1278.1] ( 29 )
                14 [1387.1] ( 30 ), 15 [1385.7] ( 31 )
        
System load averages (1min, 5min, 15min) : 5.0 %, 2.5 %, 1.7 %
Hyperthreading is enabled
HPC is enabled


Simulating `input.scs' on s2424 at 11:36:07 AM, Mon Oct 11, 2021 (process id: 21468).
Current working directory: /home/ykhuang/WorkingDir_XH018/Sim/MultiChannel_EMG_TestBench/TCAimp_TB/adexl/results/data/Interactive.24/16/MultiChannel_EMG_TestBench:TCAimp_TB:1/netlist
Command line:
    /pkg/cadence/installs/SPECTRE181/tools/bin/spectre -64 input.scs  \
        +escchars +log ../psf/spectre.out -format psfxl -raw ../psf  \
        ++aps +lqtimeout 900 -maxw 5 -maxn 5 -env ade -ahdllibdir  \
        /home/ykhuang/WorkingDir_XH018/Sim/MultiChannel_EMG_TestBench/TCAimp_TB/adexl/results/data/Interactive.24/sharedData/Job302/ahdl/input.ahdlSimDB  \
        +logstatus

Loading /pkg/cadence/installs/SPECTRE181/tools.lnx86/cmi/lib/64bit/5.0/libinfineon_sh.so ...
Loading /pkg/cadence/installs/SPECTRE181/tools.lnx86/cmi/lib/64bit/5.0/libphilips_o_sh.so ...
Loading /pkg/cadence/installs/SPECTRE181/tools.lnx86/cmi/lib/64bit/5.0/libphilips_sh.so ...
Loading /pkg/cadence/installs/SPECTRE181/tools.lnx86/cmi/lib/64bit/5.0/libsparam_sh.so ...
Loading /pkg/cadence/installs/SPECTRE181/tools.lnx86/cmi/lib/64bit/5.0/libstmodels_sh.so ...
Reading file:  /home/ykhuang/WorkingDir_XH018/Sim/MultiChannel_EMG_TestBench/TCAimp_TB/adexl/results/data/Interactive.24/16/MultiChannel_EMG_TestBench:TCAimp_TB:1/netlist/input.scs
Reading file:  /pkg/cadence/installs/SPECTRE181/tools.lnx86/spectre/etc/configs/spectre.cfg
Reading file:  /pkg/xfab/XKIT/xh018/cadence/v8_0/spectre/v8_0_1/lpmos/param.scs
Reading file:  /pkg/xfab/XKIT/xh018/cadence/v8_0/spectre/v8_0_1/lpmos/bip.scs
Reading file:  /pkg/xfab/XKIT/xh018/cadence/v8_0/spectre/v8_0_1/lpmos/models/bip/tm_bip.scs
Reading file:  /pkg/xfab/XKIT/xh018/cadence/v8_0/spectre/v8_0_1/lpmos/models/bip/qpva.scs
Reading file:  /pkg/xfab/XKIT/xh018/cadence/v8_0/spectre/v8_0_1/lpmos/models/bip/qpvb.scs
Reading file:  /pkg/xfab/XKIT/xh018/cadence/v8_0/spectre/v8_0_1/lpmos/models/bip/qpvc.scs
Reading file:  /pkg/xfab/XKIT/xh018/cadence/v8_0/spectre/v8_0_1/lpmos/models/bip/qpva3.scs
Reading file:  /pkg/xfab/XKIT/xh018/cadence/v8_0/spectre/v8_0_1/lpmos/models/bip/qpvb3.scs
Reading file:  /pkg/xfab/XKIT/xh018/cadence/v8_0/spectre/v8_0_1/lpmos/models/bip/qpvc3.scs
Reading file:  /pkg/xfab/XKIT/xh018/cadence/v8_0/spectre/v8_0_1/lpmos/models/bip/qnva.scs
Reading file:  /pkg/xfab/XKIT/xh018/cadence/v8_0/spectre/v8_0_1/lpmos/models/bip/qnvb.scs
Reading file:  /pkg/xfab/XKIT/xh018/cadence/v8_0/spectre/v8_0_1/lpmos/models/bip/qnvb_npn.scs
Reading file:  /pkg/xfab/XKIT/xh018/cadence/v8_0/spectre/v8_0_1/lpmos/models/bip/qnvb_pnp.scs
Reading file:  /pkg/xfab/XKIT/xh018/cadence/v8_0/spectre/v8_0_1/lpmos/models/bip/qnvc.scs
Reading file:  /pkg/xfab/XKIT/xh018/cadence/v8_0/spectre/v8_0_1/lpmos/models/bip/qnvc_npn.scs
Reading file:  /pkg/xfab/XKIT/xh018/cadence/v8_0/spectre/v8_0_1/lpmos/models/bip/qnvc_pnp.scs
Reading file:  /pkg/xfab/XKIT/xh018/cadence/v8_0/spectre/v8_0_1/lpmos/models/bip/qpvhscr.scs
Reading file:  /pkg/xfab/XKIT/xh018/cadence/v8_0/spectre/v8_0_1/lpmos/models/bip/qpvascr.scs
Reading file:  /pkg/xfab/XKIT/xh018/cadence/v8_0/spectre/v8_0_1/lpmos/models/bip/qpvhbscr.scs
Reading file:  /pkg/xfab/XKIT/xh018/cadence/v8_0/spectre/v8_0_1/lpmos/models/bip/qpv_pa.scs
Reading file:  /pkg/xfab/XKIT/xh018/cadence/v8_0/spectre/v8_0_1/lpmos/models/bip/qpv_pb.scs
Reading file:  /pkg/xfab/XKIT/xh018/cadence/v8_0/spectre/v8_0_1/lpmos/models/bip/qpv_pc.scs
Reading file:  /pkg/xfab/XKIT/xh018/cadence/v8_0/spectre/v8_0_1/lpmos/models/bip/qpv_pd.scs
Reading file:  /pkg/xfab/XKIT/xh018/cadence/v8_0/spectre/v8_0_1/lpmos/models/bip/qpv_pe.scs
Reading file:  /pkg/xfab/XKIT/xh018/cadence/v8_0/spectre/v8_0_1/lpmos/models/bip/qpv_pf.scs
Reading file:  /pkg/xfab/XKIT/xh018/cadence/v8_0/spectre/v8_0_1/lpmos/models/bip/qpl_pa.scs
Reading file:  /pkg/xfab/XKIT/xh018/cadence/v8_0/spectre/v8_0_1/lpmos/models/bip/qpl_pb.scs
Reading file:  /pkg/xfab/XKIT/xh018/cadence/v8_0/spectre/v8_0_1/lpmos/models/bip/qpl_pc.scs
Reading file:  /pkg/xfab/XKIT/xh018/cadence/v8_0/spectre/v8_0_1/lpmos/models/bip/qpl_pd.scs
Reading file:  /pkg/xfab/XKIT/xh018/cadence/v8_0/spectre/v8_0_1/lpmos/models/bip/qpl_pe.scs
Reading file:  /pkg/xfab/XKIT/xh018/cadence/v8_0/spectre/v8_0_1/lpmos/models/bip/qpl_pf.scs
Reading file:  /pkg/xfab/XKIT/xh018/cadence/v8_0/spectre/v8_0_1/lpmos/models/bip/qnl_pa.scs
Reading file:  /pkg/xfab/XKIT/xh018/cadence/v8_0/spectre/v8_0_1/lpmos/models/bip/qnl_pb.scs
Reading file:  /pkg/xfab/XKIT/xh018/cadence/v8_0/spectre/v8_0_1/lpmos/models/bip/qnl_pc.scs
Reading file:  /pkg/xfab/XKIT/xh018/cadence/v8_0/spectre/v8_0_1/lpmos/models/bip/qnl_pd.scs
Reading file:  /pkg/xfab/XKIT/xh018/cadence/v8_0/spectre/v8_0_1/lpmos/models/bip/qnl_pe.scs
Reading file:  /pkg/xfab/XKIT/xh018/cadence/v8_0/spectre/v8_0_1/lpmos/models/bip/qnl_pf.scs
Reading file:  /pkg/xfab/XKIT/xh018/cadence/v8_0/spectre/v8_0_1/lpmos/cap.scs
Reading file:  /pkg/xfab/XKIT/xh018/cadence/v8_0/spectre/v8_0_1/lpmos/models/cap/wp_cap.scs
Reading file:  /pkg/xfab/XKIT/xh018/cadence/v8_0/spectre/v8_0_1/lpmos/models/cap/csandwt3.scs
Reading file:  /pkg/xfab/XKIT/xh018/cadence/v8_0/spectre/v8_0_1/lpmos/models/cap/csandwt4.scs
Reading file:  /pkg/xfab/XKIT/xh018/cadence/v8_0/spectre/v8_0_1/lpmos/models/cap/csandwt5.scs
Reading file:  /pkg/xfab/XKIT/xh018/cadence/v8_0/spectre/v8_0_1/lpmos/models/cap/csf2p.scs
Reading file:  /pkg/xfab/XKIT/xh018/cadence/v8_0/spectre/v8_0_1/lpmos/models/cap/csf3p.scs
Reading file:  /pkg/xfab/XKIT/xh018/cadence/v8_0/spectre/v8_0_1/lpmos/models/cap/csf3.scs
Reading file:  /pkg/xfab/XKIT/xh018/cadence/v8_0/spectre/v8_0_1/lpmos/models/cap/csf4.scs
Reading file:  /pkg/xfab/XKIT/xh018/cadence/v8_0/spectre/v8_0_1/lpmos/models/cap/csf5.scs
Reading file:  /pkg/xfab/XKIT/xh018/cadence/v8_0/spectre/v8_0_1/lpmos/models/cap/csft4.scs
Reading file:  /pkg/xfab/XKIT/xh018/cadence/v8_0/spectre/v8_0_1/lpmos/models/cap/csft5.scs
Reading file:  /pkg/xfab/XKIT/xh018/cadence/v8_0/spectre/v8_0_1/lpmos/models/cap/csft6.scs
Reading file:  /pkg/xfab/XKIT/xh018/cadence/v8_0/spectre/v8_0_1/lpmos/models/cap/csf3a.scs
Reading file:  /pkg/xfab/XKIT/xh018/cadence/v8_0/spectre/v8_0_1/lpmos/models/cap/csf4a.scs
Reading file:  /pkg/xfab/XKIT/xh018/cadence/v8_0/spectre/v8_0_1/lpmos/models/cap/csf5a.scs
Reading file:  /pkg/xfab/XKIT/xh018/cadence/v8_0/spectre/v8_0_1/lpmos/models/cap/csft4a.scs
Reading file:  /pkg/xfab/XKIT/xh018/cadence/v8_0/spectre/v8_0_1/lpmos/models/cap/csft5a.scs
Reading file:  /pkg/xfab/XKIT/xh018/cadence/v8_0/spectre/v8_0_1/lpmos/models/cap/csft6a.scs
Reading file:  /pkg/xfab/XKIT/xh018/cadence/v8_0/spectre/v8_0_1/lpmos/models/cap/cmm3.scs
Reading file:  /pkg/xfab/XKIT/xh018/cadence/v8_0/spectre/v8_0_1/lpmos/models/cap/cmm4t.scs
Reading file:  /pkg/xfab/XKIT/xh018/cadence/v8_0/spectre/v8_0_1/lpmos/models/cap/cmm4.scs
Reading file:  /pkg/xfab/XKIT/xh018/cadence/v8_0/spectre/v8_0_1/lpmos/models/cap/cmm5t.scs
Reading file:  /pkg/xfab/XKIT/xh018/cadence/v8_0/spectre/v8_0_1/lpmos/models/cap/cmm6t.scs
Reading file:  /pkg/xfab/XKIT/xh018/cadence/v8_0/spectre/v8_0_1/lpmos/models/cap/cdmm4.scs
Reading file:  /pkg/xfab/XKIT/xh018/cadence/v8_0/spectre/v8_0_1/lpmos/models/cap/cdmm4t.scs
Reading file:  /pkg/xfab/XKIT/xh018/cadence/v8_0/spectre/v8_0_1/lpmos/models/cap/ctmm5.scs
Reading file:  /pkg/xfab/XKIT/xh018/cadence/v8_0/spectre/v8_0_1/lpmos/models/cap/ctmm5t.scs
Reading file:  /pkg/xfab/XKIT/xh018/cadence/v8_0/spectre/v8_0_1/lpmos/models/cap/cmmh3.scs
Reading file:  /pkg/xfab/XKIT/xh018/cadence/v8_0/spectre/v8_0_1/lpmos/models/cap/cmmh4t.scs
Reading file:  /pkg/xfab/XKIT/xh018/cadence/v8_0/spectre/v8_0_1/lpmos/models/cap/cmmh4.scs
Reading file:  /pkg/xfab/XKIT/xh018/cadence/v8_0/spectre/v8_0_1/lpmos/models/cap/cmmh5t.scs
Reading file:  /pkg/xfab/XKIT/xh018/cadence/v8_0/spectre/v8_0_1/lpmos/models/cap/cmmh6t.scs
Reading file:  /pkg/xfab/XKIT/xh018/cadence/v8_0/spectre/v8_0_1/lpmos/models/cap/cdmmh4.scs
Reading file:  /pkg/xfab/XKIT/xh018/cadence/v8_0/spectre/v8_0_1/lpmos/models/cap/cdmmh4t.scs
Reading file:  /pkg/xfab/XKIT/xh018/cadence/v8_0/spectre/v8_0_1/lpmos/models/cap/ctmmh5.scs
Reading file:  /pkg/xfab/XKIT/xh018/cadence/v8_0/spectre/v8_0_1/lpmos/models/cap/ctmmh5t.scs
Reading file:  /pkg/xfab/XKIT/xh018/cadence/v8_0/spectre/v8_0_1/lpmos/models/cap/mosvc.scs
Reading file:  /pkg/xfab/XKIT/xh018/cadence/v8_0/spectre/v8_0_1/lpmos/models/cap/mosvc_pmos.scs
Reading file:  /pkg/xfab/XKIT/xh018/cadence/v8_0/spectre/v8_0_1/lpmos/models/cap/mosvci.scs
Reading file:  /pkg/xfab/XKIT/xh018/cadence/v8_0/spectre/v8_0_1/lpmos/models/cap/mosvci_nmos.scs
Reading file:  /pkg/xfab/XKIT/xh018/cadence/v8_0/spectre/v8_0_1/lpmos/models/cap/mosvci_m.scs
Reading file:  /pkg/xfab/XKIT/xh018/cadence/v8_0/spectre/v8_0_1/lpmos/models/cap/mosvc3.scs
Reading file:  /pkg/xfab/XKIT/xh018/cadence/v8_0/spectre/v8_0_1/lpmos/models/cap/mosvc3_pmos.scs
Reading file:  /pkg/xfab/XKIT/xh018/cadence/v8_0/spectre/v8_0_1/lpmos/models/cap/mosvc3i.scs
Reading file:  /pkg/xfab/XKIT/xh018/cadence/v8_0/spectre/v8_0_1/lpmos/models/cap/mosvc3i_nmos.scs
Reading file:  /pkg/xfab/XKIT/xh018/cadence/v8_0/spectre/v8_0_1/lpmos/models/cap/mosvc3i_m.scs
Reading file:  /pkg/xfab/XKIT/xh018/cadence/v8_0/spectre/v8_0_1/lpmos/models/cap/cpod.scs
Reading file:  /pkg/xfab/XKIT/xh018/cadence/v8_0/spectre/v8_0_1/lpmos/models/cap/cpod_i.scs
Reading file:  /pkg/xfab/XKIT/xh018/cadence/v8_0/spectre/v8_0_1/lpmos/models/cap/cpodhv.scs
Reading file:  /pkg/xfab/XKIT/xh018/cadence/v8_0/spectre/v8_0_1/lpmos/models/cap/cpodhv_i.scs
Reading file:  /pkg/xfab/XKIT/xh018/cadence/v8_0/spectre/v8_0_1/lpmos/models/cap/cp1sub.scs
Reading file:  /pkg/xfab/XKIT/xh018/cadence/v8_0/spectre/v8_0_1/lpmos/models/cap/cp1suba.scs
Reading file:  /pkg/xfab/XKIT/xh018/cadence/v8_0/spectre/v8_0_1/lpmos/models/cap/cp1subp.scs
Reading file:  /pkg/xfab/XKIT/xh018/cadence/v8_0/spectre/v8_0_1/lpmos/models/cap/tag_25v.scs
Reading file:  /pkg/xfab/XKIT/xh018/cadence/v8_0/spectre/v8_0_1/lpmos/models/cap/tag_60v.scs
Reading file:  /pkg/xfab/XKIT/xh018/cadence/v8_0/spectre/v8_0_1/lpmos/dio.scs
Reading file:  /pkg/xfab/XKIT/xh018/cadence/v8_0/spectre/v8_0_1/lpmos/models/dio/tm_dio.scs
Reading file:  /pkg/xfab/XKIT/xh018/cadence/v8_0/spectre/v8_0_1/lpmos/models/dio/dn.scs
Reading file:  /pkg/xfab/XKIT/xh018/cadence/v8_0/spectre/v8_0_1/lpmos/models/dio/dp.scs
Reading file:  /pkg/xfab/XKIT/xh018/cadence/v8_0/spectre/v8_0_1/lpmos/models/dio/dnw.scs
Reading file:  /pkg/xfab/XKIT/xh018/cadence/v8_0/spectre/v8_0_1/lpmos/models/dio/dn3.scs
Reading file:  /pkg/xfab/XKIT/xh018/cadence/v8_0/spectre/v8_0_1/lpmos/models/dio/dnn3.scs
Reading file:  /pkg/xfab/XKIT/xh018/cadence/v8_0/spectre/v8_0_1/lpmos/models/dio/dp3.scs
Reading file:  /pkg/xfab/XKIT/xh018/cadence/v8_0/spectre/v8_0_1/lpmos/models/dio/dnw3.scs
Reading file:  /pkg/xfab/XKIT/xh018/cadence/v8_0/spectre/v8_0_1/lpmos/models/dio/ddnwmv.scs
Reading file:  /pkg/xfab/XKIT/xh018/cadence/v8_0/spectre/v8_0_1/lpmos/models/dio/dpdnwmv.scs
Reading file:  /pkg/xfab/XKIT/xh018/cadence/v8_0/spectre/v8_0_1/lpmos/models/dio/dipdnwmv.scs
Reading file:  /pkg/xfab/XKIT/xh018/cadence/v8_0/spectre/v8_0_1/lpmos/models/dio/ddnw.scs
Reading file:  /pkg/xfab/XKIT/xh018/cadence/v8_0/spectre/v8_0_1/lpmos/models/dio/dpdnw.scs
Reading file:  /pkg/xfab/XKIT/xh018/cadence/v8_0/spectre/v8_0_1/lpmos/models/dio/dipdnw.scs
Reading file:  /pkg/xfab/XKIT/xh018/cadence/v8_0/spectre/v8_0_1/lpmos/models/dio/dnhpw.scs
Reading file:  /pkg/xfab/XKIT/xh018/cadence/v8_0/spectre/v8_0_1/lpmos/models/dio/dnhpwa.scs
Reading file:  /pkg/xfab/XKIT/xh018/cadence/v8_0/spectre/v8_0_1/lpmos/models/dio/dphnw.scs
Reading file:  /pkg/xfab/XKIT/xh018/cadence/v8_0/spectre/v8_0_1/lpmos/models/dio/dphnwa.scs
Reading file:  /pkg/xfab/XKIT/xh018/cadence/v8_0/spectre/v8_0_1/lpmos/models/dio/dhpw.scs
Reading file:  /pkg/xfab/XKIT/xh018/cadence/v8_0/spectre/v8_0_1/lpmos/models/dio/dhnw.scs
Reading file:  /pkg/xfab/XKIT/xh018/cadence/v8_0/spectre/v8_0_1/lpmos/models/dio/dndf.scs
Reading file:  /pkg/xfab/XKIT/xh018/cadence/v8_0/spectre/v8_0_1/lpmos/models/dio/dpdwhn.scs
Reading file:  /pkg/xfab/XKIT/xh018/cadence/v8_0/spectre/v8_0_1/lpmos/models/dio/dwhn.scs
Reading file:  /pkg/xfab/XKIT/xh018/cadence/v8_0/spectre/v8_0_1/lpmos/models/dio/dpwhn.scs
Reading file:  /pkg/xfab/XKIT/xh018/cadence/v8_0/spectre/v8_0_1/lpmos/models/dio/dpndf.scs
Reading file:  /pkg/xfab/XKIT/xh018/cadence/v8_0/spectre/v8_0_1/lpmos/models/dio/dpdddnw.scs
Reading file:  /pkg/xfab/XKIT/xh018/cadence/v8_0/spectre/v8_0_1/lpmos/models/dio/ddpldnw.scs
Reading file:  /pkg/xfab/XKIT/xh018/cadence/v8_0/spectre/v8_0_1/lpmos/models/dio/dn3dpl.scs
Reading file:  /pkg/xfab/XKIT/xh018/cadence/v8_0/spectre/v8_0_1/lpmos/models/dio/dbn.scs
Reading file:  /pkg/xfab/XKIT/xh018/cadence/v8_0/spectre/v8_0_1/lpmos/models/dio/dpol.scs
Reading file:  /pkg/xfab/XKIT/xh018/cadence/v8_0/spectre/v8_0_1/lpmos/models/dio/dnpdd_scr.scs
Reading file:  /pkg/xfab/XKIT/xh018/cadence/v8_0/spectre/v8_0_1/lpmos/models/dio/dpdd_scr.scs
Reading file:  /pkg/xfab/XKIT/xh018/cadence/v8_0/spectre/v8_0_1/lpmos/models/dio/dsb.scs
Reading file:  /pkg/xfab/XKIT/xh018/cadence/v8_0/spectre/v8_0_1/lpmos/models/dio/dsba.scs
Reading file:  /pkg/xfab/XKIT/xh018/cadence/v8_0/spectre/v8_0_1/lpmos/models/dio/dsba_qp1.scs
Reading file:  /pkg/xfab/XKIT/xh018/cadence/v8_0/spectre/v8_0_1/lpmos/models/dio/dnp20.scs
Reading file:  /pkg/xfab/XKIT/xh018/cadence/v8_0/spectre/v8_0_1/lpmos/models/dio/dpp20.scs
Reading file:  /pkg/xfab/XKIT/xh018/cadence/v8_0/spectre/v8_0_1/lpmos/models/dio/dn3sci.scs
Reading file:  /pkg/xfab/XKIT/xh018/cadence/v8_0/spectre/v8_0_1/lpmos/models/dio/dscidnwmv.scs
Reading file:  /pkg/xfab/XKIT/xh018/cadence/v8_0/spectre/v8_0_1/lpmos/mos.scs
Reading file:  /pkg/xfab/XKIT/xh018/cadence/v8_0/spectre/v8_0_1/lpmos/models/mos/wz_mos.scs
Reading file:  /pkg/xfab/XKIT/xh018/cadence/v8_0/spectre/v8_0_1/lpmos/models/mos/ne.scs
Reading file:  /pkg/xfab/XKIT/xh018/cadence/v8_0/spectre/v8_0_1/lpmos/models/mos/nei.scs
Reading file:  /pkg/xfab/XKIT/xh018/cadence/v8_0/spectre/v8_0_1/lpmos/models/mos/nei_6.scs
Reading file:  /pkg/xfab/XKIT/xh018/cadence/v8_0/spectre/v8_0_1/lpmos/models/mos/nei_m_6.scs
Reading file:  /pkg/xfab/XKIT/xh018/cadence/v8_0/spectre/v8_0_1/lpmos/models/mos/pe.scs
Reading file:  /pkg/xfab/XKIT/xh018/cadence/v8_0/spectre/v8_0_1/lpmos/models/mos/pe_5.scs
Reading file:  /pkg/xfab/XKIT/xh018/cadence/v8_0/spectre/v8_0_1/lpmos/models/mos/pei.scs
Reading file:  /pkg/xfab/XKIT/xh018/cadence/v8_0/spectre/v8_0_1/lpmos/models/mos/pei_5.scs
Reading file:  /pkg/xfab/XKIT/xh018/cadence/v8_0/spectre/v8_0_1/lpmos/models/mos/pei_m_5.scs
Reading file:  /pkg/xfab/XKIT/xh018/cadence/v8_0/spectre/v8_0_1/lpmos/models/mos/nel.scs
Reading file:  /pkg/xfab/XKIT/xh018/cadence/v8_0/spectre/v8_0_1/lpmos/models/mos/neli.scs
Reading file:  /pkg/xfab/XKIT/xh018/cadence/v8_0/spectre/v8_0_1/lpmos/models/mos/neli_6.scs
Reading file:  /pkg/xfab/XKIT/xh018/cadence/v8_0/spectre/v8_0_1/lpmos/models/mos/neli_m_6.scs
Reading file:  /pkg/xfab/XKIT/xh018/cadence/v8_0/spectre/v8_0_1/lpmos/models/mos/pel.scs
Reading file:  /pkg/xfab/XKIT/xh018/cadence/v8_0/spectre/v8_0_1/lpmos/models/mos/pel_5.scs
Reading file:  /pkg/xfab/XKIT/xh018/cadence/v8_0/spectre/v8_0_1/lpmos/models/mos/peli.scs
Reading file:  /pkg/xfab/XKIT/xh018/cadence/v8_0/spectre/v8_0_1/lpmos/models/mos/peli_5.scs
Reading file:  /pkg/xfab/XKIT/xh018/cadence/v8_0/spectre/v8_0_1/lpmos/models/mos/peli_m_5.scs
Reading file:  /pkg/xfab/XKIT/xh018/cadence/v8_0/spectre/v8_0_1/lpmos/models/mos/nn3.scs
Reading file:  /pkg/xfab/XKIT/xh018/cadence/v8_0/spectre/v8_0_1/lpmos/models/mos/ne3.scs
Reading file:  /pkg/xfab/XKIT/xh018/cadence/v8_0/spectre/v8_0_1/lpmos/models/mos/ne3i.scs
Reading file:  /pkg/xfab/XKIT/xh018/cadence/v8_0/spectre/v8_0_1/lpmos/models/mos/ne3i_6.scs
Reading file:  /pkg/xfab/XKIT/xh018/cadence/v8_0/spectre/v8_0_1/lpmos/models/mos/ne3i_m_6.scs
Reading file:  /pkg/xfab/XKIT/xh018/cadence/v8_0/spectre/v8_0_1/lpmos/models/mos/pe3.scs
Reading file:  /pkg/xfab/XKIT/xh018/cadence/v8_0/spectre/v8_0_1/lpmos/models/mos/pe3_5.scs
Reading file:  /pkg/xfab/XKIT/xh018/cadence/v8_0/spectre/v8_0_1/lpmos/models/mos/pe3i.scs
Reading file:  /pkg/xfab/XKIT/xh018/cadence/v8_0/spectre/v8_0_1/lpmos/models/mos/pe3i_5.scs
Reading file:  /pkg/xfab/XKIT/xh018/cadence/v8_0/spectre/v8_0_1/lpmos/models/mos/pe3i_m_5.scs
Reading file:  /pkg/xfab/XKIT/xh018/cadence/v8_0/spectre/v8_0_1/lpmos/models/mos/pe3ln.scs
Reading file:  /pkg/xfab/XKIT/xh018/cadence/v8_0/spectre/v8_0_1/lpmos/models/mos/pe3ln_5.scs
Reading file:  /pkg/xfab/XKIT/xh018/cadence/v8_0/spectre/v8_0_1/lpmos/models/mos/pe3lni.scs
Reading file:  /pkg/xfab/XKIT/xh018/cadence/v8_0/spectre/v8_0_1/lpmos/models/mos/pe3lni_5.scs
Reading file:  /pkg/xfab/XKIT/xh018/cadence/v8_0/spectre/v8_0_1/lpmos/models/mos/pe3lni_m_5.scs
Reading file:  /pkg/xfab/XKIT/xh018/cadence/v8_0/spectre/v8_0_1/lpmos/models/mos/nd3.scs
Reading file:  /pkg/xfab/XKIT/xh018/cadence/v8_0/spectre/v8_0_1/lpmos/models/mos/nd3_mos1.scs
Reading file:  /pkg/xfab/XKIT/xh018/cadence/v8_0/spectre/v8_0_1/lpmos/models/mos/nd3_mos2.scs
Reading file:  /pkg/xfab/XKIT/xh018/cadence/v8_0/spectre/v8_0_1/lpmos/models/mos/nd3i.scs
Reading file:  /pkg/xfab/XKIT/xh018/cadence/v8_0/spectre/v8_0_1/lpmos/models/mos/nd3i_mos1.scs
Reading file:  /pkg/xfab/XKIT/xh018/cadence/v8_0/spectre/v8_0_1/lpmos/models/mos/nd3i_mos2.scs
Reading file:  /pkg/xfab/XKIT/xh018/cadence/v8_0/spectre/v8_0_1/lpmos/models/mos/nd3i_6.scs
Reading file:  /pkg/xfab/XKIT/xh018/cadence/v8_0/spectre/v8_0_1/lpmos/models/mos/nd3i_m_6.scs
Reading file:  /pkg/xfab/XKIT/xh018/cadence/v8_0/spectre/v8_0_1/lpmos/models/mos/nelna.scs
Reading file:  /pkg/xfab/XKIT/xh018/cadence/v8_0/spectre/v8_0_1/lpmos/models/mos/nelnai.scs
Reading file:  /pkg/xfab/XKIT/xh018/cadence/v8_0/spectre/v8_0_1/lpmos/models/mos/nelnai_6.scs
Reading file:  /pkg/xfab/XKIT/xh018/cadence/v8_0/spectre/v8_0_1/lpmos/models/mos/nelnai_m_6.scs
Reading file:  /pkg/xfab/XKIT/xh018/cadence/v8_0/spectre/v8_0_1/lpmos/models/mos/ne3lna.scs
Reading file:  /pkg/xfab/XKIT/xh018/cadence/v8_0/spectre/v8_0_1/lpmos/models/mos/ne3lnai.scs
Reading file:  /pkg/xfab/XKIT/xh018/cadence/v8_0/spectre/v8_0_1/lpmos/models/mos/ne3lnai_6.scs
Reading file:  /pkg/xfab/XKIT/xh018/cadence/v8_0/spectre/v8_0_1/lpmos/models/mos/ne3lnai_m_6.scs
Reading file:  /pkg/xfab/XKIT/xh018/cadence/v8_0/spectre/v8_0_1/lpmos/models/mos/pe3lna.scs
Reading file:  /pkg/xfab/XKIT/xh018/cadence/v8_0/spectre/v8_0_1/lpmos/models/mos/pe3lna_5.scs
Reading file:  /pkg/xfab/XKIT/xh018/cadence/v8_0/spectre/v8_0_1/lpmos/models/mos/pe3lnai.scs
Reading file:  /pkg/xfab/XKIT/xh018/cadence/v8_0/spectre/v8_0_1/lpmos/models/mos/pe3lnai_5.scs
Reading file:  /pkg/xfab/XKIT/xh018/cadence/v8_0/spectre/v8_0_1/lpmos/models/mos/pe3lnai_m_5.scs
Reading file:  /pkg/xfab/XKIT/xh018/cadence/v8_0/spectre/v8_0_1/lpmos/models/mos/nmma.scs
Reading file:  /pkg/xfab/XKIT/xh018/cadence/v8_0/spectre/v8_0_1/lpmos/models/mos/jf_nmma.scs
Reading file:  /pkg/xfab/XKIT/xh018/cadence/v8_0/spectre/v8_0_1/lpmos/models/mos/nmma_bjt.scs
Reading file:  /pkg/xfab/XKIT/xh018/cadence/v8_0/spectre/v8_0_1/lpmos/models/mos/pmma.scs
Reading file:  /pkg/xfab/XKIT/xh018/cadence/v8_0/spectre/v8_0_1/lpmos/models/mos/jf_pmma.scs
Reading file:  /pkg/xfab/XKIT/xh018/cadence/v8_0/spectre/v8_0_1/lpmos/models/mos/pmma_bjt.scs
Reading file:  /pkg/xfab/XKIT/xh018/cadence/v8_0/spectre/v8_0_1/lpmos/models/mos/nedi.scs
Reading file:  /pkg/xfab/XKIT/xh018/cadence/v8_0/spectre/v8_0_1/lpmos/models/mos/nedi_bjt.scs
Reading file:  /pkg/xfab/XKIT/xh018/cadence/v8_0/spectre/v8_0_1/lpmos/models/mos/nedia.scs
Reading file:  /pkg/xfab/XKIT/xh018/cadence/v8_0/spectre/v8_0_1/lpmos/models/mos/nedia_bjt.scs
Reading file:  /pkg/xfab/XKIT/xh018/cadence/v8_0/spectre/v8_0_1/lpmos/models/mos/ped2.scs
Reading file:  /pkg/xfab/XKIT/xh018/cadence/v8_0/spectre/v8_0_1/lpmos/models/mos/ped2_bjt.scs
Reading file:  /pkg/xfab/XKIT/xh018/cadence/v8_0/spectre/v8_0_1/lpmos/models/mos/ped.scs
Reading file:  /pkg/xfab/XKIT/xh018/cadence/v8_0/spectre/v8_0_1/lpmos/models/mos/ped_bjt.scs
Reading file:  /pkg/xfab/XKIT/xh018/cadence/v8_0/spectre/v8_0_1/lpmos/models/mos/nhv.scs
Reading file:  /pkg/xfab/XKIT/xh018/cadence/v8_0/spectre/v8_0_1/lpmos/models/mos/nhv_mos2.scs
Reading file:  /pkg/xfab/XKIT/xh018/cadence/v8_0/spectre/v8_0_1/lpmos/models/mos/nhv_bjt.scs
Reading file:  /pkg/xfab/XKIT/xh018/cadence/v8_0/spectre/v8_0_1/lpmos/models/mos/nhhv.scs
Reading file:  /pkg/xfab/XKIT/xh018/cadence/v8_0/spectre/v8_0_1/lpmos/models/mos/nhhv_mos2.scs
Reading file:  /pkg/xfab/XKIT/xh018/cadence/v8_0/spectre/v8_0_1/lpmos/models/mos/nhhv_bjt.scs
Reading file:  /pkg/xfab/XKIT/xh018/cadence/v8_0/spectre/v8_0_1/lpmos/models/mos/nmmc.scs
Reading file:  /pkg/xfab/XKIT/xh018/cadence/v8_0/spectre/v8_0_1/lpmos/models/mos/nmmc_mos2.scs
Reading file:  /pkg/xfab/XKIT/xh018/cadence/v8_0/spectre/v8_0_1/lpmos/models/mos/nmmc_bjt.scs
Reading file:  /pkg/xfab/XKIT/xh018/cadence/v8_0/spectre/v8_0_1/lpmos/models/mos/nmmd.scs
Reading file:  /pkg/xfab/XKIT/xh018/cadence/v8_0/spectre/v8_0_1/lpmos/models/mos/nmmd_mos2.scs
Reading file:  /pkg/xfab/XKIT/xh018/cadence/v8_0/spectre/v8_0_1/lpmos/models/mos/nmmd_bjt.scs
Reading file:  /pkg/xfab/XKIT/xh018/cadence/v8_0/spectre/v8_0_1/lpmos/models/mos/nmc.scs
Reading file:  /pkg/xfab/XKIT/xh018/cadence/v8_0/spectre/v8_0_1/lpmos/models/mos/nmc_mos2.scs
Reading file:  /pkg/xfab/XKIT/xh018/cadence/v8_0/spectre/v8_0_1/lpmos/models/mos/nmc_bjt.scs
Reading file:  /pkg/xfab/XKIT/xh018/cadence/v8_0/spectre/v8_0_1/lpmos/models/mos/nma.scs
Reading file:  /pkg/xfab/XKIT/xh018/cadence/v8_0/spectre/v8_0_1/lpmos/models/mos/nma_bjt.scs
Reading file:  /pkg/xfab/XKIT/xh018/cadence/v8_0/spectre/v8_0_1/lpmos/models/mos/phv.scs
Reading file:  /pkg/xfab/XKIT/xh018/cadence/v8_0/spectre/v8_0_1/lpmos/models/mos/phv_mos2.scs
Reading file:  /pkg/xfab/XKIT/xh018/cadence/v8_0/spectre/v8_0_1/lpmos/models/mos/phv_bjt.scs
Reading file:  /pkg/xfab/XKIT/xh018/cadence/v8_0/spectre/v8_0_1/lpmos/models/mos/phhv.scs
Reading file:  /pkg/xfab/XKIT/xh018/cadence/v8_0/spectre/v8_0_1/lpmos/models/mos/phhv_mos2.scs
Reading file:  /pkg/xfab/XKIT/xh018/cadence/v8_0/spectre/v8_0_1/lpmos/models/mos/phhv_bjt.scs
Reading file:  /pkg/xfab/XKIT/xh018/cadence/v8_0/spectre/v8_0_1/lpmos/models/mos/pmc.scs
Reading file:  /pkg/xfab/XKIT/xh018/cadence/v8_0/spectre/v8_0_1/lpmos/models/mos/pmc_mos2.scs
Reading file:  /pkg/xfab/XKIT/xh018/cadence/v8_0/spectre/v8_0_1/lpmos/models/mos/pmc_bjt.scs
Reading file:  /pkg/xfab/XKIT/xh018/cadence/v8_0/spectre/v8_0_1/lpmos/models/mos/pmmc.scs
Reading file:  /pkg/xfab/XKIT/xh018/cadence/v8_0/spectre/v8_0_1/lpmos/models/mos/pmmc_mos2.scs
Reading file:  /pkg/xfab/XKIT/xh018/cadence/v8_0/spectre/v8_0_1/lpmos/models/mos/pmmc_bjt.scs
Reading file:  /pkg/xfab/XKIT/xh018/cadence/v8_0/spectre/v8_0_1/lpmos/models/mos/pma.scs
Reading file:  /pkg/xfab/XKIT/xh018/cadence/v8_0/spectre/v8_0_1/lpmos/models/mos/pma_bjt.scs
Reading file:  /pkg/xfab/XKIT/xh018/cadence/v8_0/spectre/v8_0_1/lpmos/models/mos/pmb.scs
Reading file:  /pkg/xfab/XKIT/xh018/cadence/v8_0/spectre/v8_0_1/lpmos/models/mos/nesvt.scs
Reading file:  /pkg/xfab/XKIT/xh018/cadence/v8_0/spectre/v8_0_1/lpmos/models/mos/nesvti.scs
Reading file:  /pkg/xfab/XKIT/xh018/cadence/v8_0/spectre/v8_0_1/lpmos/models/mos/nesvti_6.scs
Reading file:  /pkg/xfab/XKIT/xh018/cadence/v8_0/spectre/v8_0_1/lpmos/models/mos/nesvti_m_6.scs
Reading file:  /pkg/xfab/XKIT/xh018/cadence/v8_0/spectre/v8_0_1/lpmos/models/mos/pesvt.scs
Reading file:  /pkg/xfab/XKIT/xh018/cadence/v8_0/spectre/v8_0_1/lpmos/models/mos/pesvt_5.scs
Reading file:  /pkg/xfab/XKIT/xh018/cadence/v8_0/spectre/v8_0_1/lpmos/models/mos/pesvti.scs
Reading file:  /pkg/xfab/XKIT/xh018/cadence/v8_0/spectre/v8_0_1/lpmos/models/mos/pesvti_5.scs
Reading file:  /pkg/xfab/XKIT/xh018/cadence/v8_0/spectre/v8_0_1/lpmos/models/mos/pesvti_m_5.scs
Reading file:  /pkg/xfab/XKIT/xh018/cadence/v8_0/spectre/v8_0_1/lpmos/models/mos/nhvd.scs
Reading file:  /pkg/xfab/XKIT/xh018/cadence/v8_0/spectre/v8_0_1/lpmos/models/mos/nhvd_bjt.scs
Reading file:  /pkg/xfab/XKIT/xh018/cadence/v8_0/spectre/v8_0_1/lpmos/models/mos/nhhvd.scs
Reading file:  /pkg/xfab/XKIT/xh018/cadence/v8_0/spectre/v8_0_1/lpmos/models/mos/nhhvd_bjt.scs
[...]

Output statements:
             .probe 0     
           .measure 0     
               save 1     


Notice from spectre during initial setup.
    1 vsources are short because their absolute value is less than or equal to 'vabsshort'.
    Fast APS Enabled.

Time for parsing: CPU = 5.023 ms, elapsed = 9.35388 ms.
Time accumulated: CPU = 515.475 ms, elapsed = 613.415 ms.
Peak resident memory used = 81.3 Mbytes.

~~~~~~~~~~~~~~~~~~~~~~
Pre-Simulation Summary
~~~~~~~~~~~~~~~~~~~~~~
~~~~~~~~~~~~~~~~~~~~~~

********************************************
AC Analysis `ac': freq = (10 mHz -> 100 MHz)
********************************************

Notice from spectre during DC analysis, during AC analysis `ac'.
    Bad pivoting is found during DC analysis. Option dc_pivot_check=yes is recommended for possible improvement of convergence.

DC simulation time: CPU = 2.924 ms, elapsed = 2.92492 ms.

Opening the PSF file ../psf/ac.ac ...
    ac: freq = 17.78 mHz    (2.5 %), step = 1.934 mHz    (500 m%)
    ac: freq = 19.95 mHz      (3 %), step = 2.17 mHz     (500 m%)
    ac: freq = 22.39 mHz    (3.5 %), step = 2.435 mHz    (500 m%)
    ac: freq = 25.12 mHz      (4 %), step = 2.732 mHz    (500 m%)
    ac: freq = 28.18 mHz    (4.5 %), step = 3.065 mHz    (500 m%)
    ac: freq = 31.62 mHz      (5 %), step = 3.439 mHz    (500 m%)
    ac: freq = 35.48 mHz    (5.5 %), step = 3.859 mHz    (500 m%)
    ac: freq = 39.81 mHz      (6 %), step = 4.329 mHz    (500 m%)
    ac: freq = 44.67 mHz    (6.5 %), step = 4.858 mHz    (500 m%)
    ac: freq = 50.12 mHz      (7 %), step = 5.45 mHz     (500 m%)
    ac: freq = 56.23 mHz    (7.5 %), step = 6.115 mHz    (500 m%)
    ac: freq = 63.1 mHz       (8 %), step = 6.862 mHz    (500 m%)
    ac: freq = 70.79 mHz    (8.5 %), step = 7.699 mHz    (500 m%)
    ac: freq = 79.43 mHz      (9 %), step = 8.638 mHz    (500 m%)
    ac: freq = 89.13 mHz    (9.5 %), step = 9.692 mHz    (500 m%)
    ac: freq = 100 mHz       (10 %), step = 10.87 mHz    (500 m%)
    ac: freq = 112.2 mHz   (10.5 %), step = 12.2 mHz     (500 m%)
    ac: freq = 125.9 mHz     (11 %), step = 13.69 mHz    (500 m%)
    ac: freq = 141.3 mHz   (11.5 %), step = 15.36 mHz    (500 m%)
    ac: freq = 158.5 mHz     (12 %), step = 17.24 mHz    (500 m%)
    ac: freq = 177.8 mHz   (12.5 %), step = 19.34 mHz    (500 m%)
    ac: freq = 199.5 mHz     (13 %), step = 21.7 mHz     (500 m%)
    ac: freq = 223.9 mHz   (13.5 %), step = 24.35 mHz    (500 m%)
    ac: freq = 251.2 mHz     (14 %), step = 27.32 mHz    (500 m%)
    ac: freq = 281.8 mHz   (14.5 %), step = 30.65 mHz    (500 m%)
    ac: freq = 316.2 mHz     (15 %), step = 34.39 mHz    (500 m%)
    ac: freq = 354.8 mHz   (15.5 %), step = 38.59 mHz    (500 m%)
    ac: freq = 398.1 mHz     (16 %), step = 43.29 mHz    (500 m%)
    ac: freq = 446.7 mHz   (16.5 %), step = 48.58 mHz    (500 m%)
    ac: freq = 501.2 mHz     (17 %), step = 54.5 mHz     (500 m%)
    ac: freq = 562.3 mHz   (17.5 %), step = 61.15 mHz    (500 m%)
    ac: freq = 631 mHz       (18 %), step = 68.62 mHz    (500 m%)
    ac: freq = 707.9 mHz   (18.5 %), step = 76.99 mHz    (500 m%)
    ac: freq = 794.3 mHz     (19 %), step = 86.38 mHz    (500 m%)
    ac: freq = 891.3 mHz   (19.5 %), step = 96.92 mHz    (500 m%)
    ac: freq = 1 Hz          (20 %), step = 108.7 mHz    (500 m%)
    ac: freq = 1.122 Hz    (20.5 %), step = 122 mHz      (500 m%)
    ac: freq = 1.259 Hz      (21 %), step = 136.9 mHz    (500 m%)
    ac: freq = 1.413 Hz    (21.5 %), step = 153.6 mHz    (500 m%)
    ac: freq = 1.585 Hz      (22 %), step = 172.4 mHz    (500 m%)
    ac: freq = 1.778 Hz    (22.5 %), step = 193.4 mHz    (500 m%)
    ac: freq = 1.995 Hz      (23 %), step = 217 mHz      (500 m%)
    ac: freq = 2.239 Hz    (23.5 %), step = 243.5 mHz    (500 m%)
    ac: freq = 2.512 Hz      (24 %), step = 273.2 mHz    (500 m%)
    ac: freq = 2.818 Hz    (24.5 %), step = 306.5 mHz    (500 m%)
    ac: freq = 3.162 Hz      (25 %), step = 343.9 mHz    (500 m%)
    ac: freq = 3.548 Hz    (25.5 %), step = 385.9 mHz    (500 m%)
    ac: freq = 3.981 Hz      (26 %), step = 432.9 mHz    (500 m%)
    ac: freq = 4.467 Hz    (26.5 %), step = 485.8 mHz    (500 m%)
    ac: freq = 5.012 Hz      (27 %), step = 545 mHz      (500 m%)
    ac: freq = 5.623 Hz    (27.5 %), step = 611.5 mHz    (500 m%)
    ac: freq = 6.31 Hz       (28 %), step = 686.2 mHz    (500 m%)
    ac: freq = 7.079 Hz    (28.5 %), step = 769.9 mHz    (500 m%)
    ac: freq = 7.943 Hz      (29 %), step = 863.8 mHz    (500 m%)
    ac: freq = 8.913 Hz    (29.5 %), step = 969.2 mHz    (500 m%)
    ac: freq = 10 Hz         (30 %), step = 1.087 Hz     (500 m%)
    ac: freq = 11.22 Hz    (30.5 %), step = 1.22 Hz      (500 m%)
    ac: freq = 12.59 Hz      (31 %), step = 1.369 Hz     (500 m%)
    ac: freq = 14.13 Hz    (31.5 %), step = 1.536 Hz     (500 m%)
    ac: freq = 15.85 Hz      (32 %), step = 1.724 Hz     (500 m%)
    ac: freq = 17.78 Hz    (32.5 %), step = 1.934 Hz     (500 m%)
    ac: freq = 19.95 Hz      (33 %), step = 2.17 Hz      (500 m%)
    ac: freq = 22.39 Hz    (33.5 %), step = 2.435 Hz     (500 m%)
    ac: freq = 25.12 Hz      (34 %), step = 2.732 Hz     (500 m%)
    ac: freq = 28.18 Hz    (34.5 %), step = 3.065 Hz     (500 m%)
    ac: freq = 31.62 Hz      (35 %), step = 3.439 Hz     (500 m%)
    ac: freq = 35.48 Hz    (35.5 %), step = 3.859 Hz     (500 m%)
    ac: freq = 39.81 Hz      (36 %), step = 4.329 Hz     (500 m%)
    ac: freq = 44.67 Hz    (36.5 %), step = 4.858 Hz     (500 m%)
    ac: freq = 50.12 Hz      (37 %), step = 5.45 Hz      (500 m%)
    ac: freq = 56.23 Hz    (37.5 %), step = 6.115 Hz     (500 m%)
    ac: freq = 63.1 Hz       (38 %), step = 6.862 Hz     (500 m%)
    ac: freq = 70.79 Hz    (38.5 %), step = 7.699 Hz     (500 m%)
    ac: freq = 79.43 Hz      (39 %), step = 8.638 Hz     (500 m%)
    ac: freq = 89.13 Hz    (39.5 %), step = 9.692 Hz     (500 m%)
    ac: freq = 100 Hz        (40 %), step = 10.87 Hz     (500 m%)
    ac: freq = 112.2 Hz    (40.5 %), step = 12.2 Hz      (500 m%)
    ac: freq = 125.9 Hz      (41 %), step = 13.69 Hz     (500 m%)
    ac: freq = 141.3 Hz    (41.5 %), step = 15.36 Hz     (500 m%)
    ac: freq = 158.5 Hz      (42 %), step = 17.24 Hz     (500 m%)
    ac: freq = 177.8 Hz    (42.5 %), step = 19.34 Hz     (500 m%)
    ac: freq = 199.5 Hz      (43 %), step = 21.7 Hz      (500 m%)
    ac: freq = 223.9 Hz    (43.5 %), step = 24.35 Hz     (500 m%)
    ac: freq = 251.2 Hz      (44 %), step = 27.32 Hz     (500 m%)
    ac: freq = 281.8 Hz    (44.5 %), step = 30.65 Hz     (500 m%)
    ac: freq = 316.2 Hz      (45 %), step = 34.39 Hz     (500 m%)
    ac: freq = 354.8 Hz    (45.5 %), step = 38.59 Hz     (500 m%)
    ac: freq = 398.1 Hz      (46 %), step = 43.29 Hz     (500 m%)
    ac: freq = 446.7 Hz    (46.5 %), step = 48.58 Hz     (500 m%)
    ac: freq = 501.2 Hz      (47 %), step = 54.5 Hz      (500 m%)
    ac: freq = 562.3 Hz    (47.5 %), step = 61.15 Hz     (500 m%)
    ac: freq = 631 Hz        (48 %), step = 68.62 Hz     (500 m%)
    ac: freq = 707.9 Hz    (48.5 %), step = 76.99 Hz     (500 m%)
    ac: freq = 794.3 Hz      (49 %), step = 86.38 Hz     (500 m%)
    ac: freq = 891.3 Hz    (49.5 %), step = 96.92 Hz     (500 m%)
    ac: freq = 1 kHz         (50 %), step = 108.7 Hz     (500 m%)
    ac: freq = 1.122 kHz   (50.5 %), step = 122 Hz       (500 m%)
    ac: freq = 1.259 kHz     (51 %), step = 136.9 Hz     (500 m%)
    ac: freq = 1.413 kHz   (51.5 %), step = 153.6 Hz     (500 m%)
    ac: freq = 1.585 kHz     (52 %), step = 172.4 Hz     (500 m%)
    ac: freq = 1.778 kHz   (52.5 %), step = 193.4 Hz     (500 m%)
    ac: freq = 1.995 kHz     (53 %), step = 217 Hz       (500 m%)
    ac: freq = 2.239 kHz   (53.5 %), step = 243.5 Hz     (500 m%)
    ac: freq = 2.512 kHz     (54 %), step = 273.2 Hz     (500 m%)
    ac: freq = 2.818 kHz   (54.5 %), step = 306.5 Hz     (500 m%)
    ac: freq = 3.162 kHz     (55 %), step = 343.9 Hz     (500 m%)
    ac: freq = 3.548 kHz   (55.5 %), step = 385.9 Hz     (500 m%)
    ac: freq = 3.981 kHz     (56 %), step = 432.9 Hz     (500 m%)
    ac: freq = 4.467 kHz   (56.5 %), step = 485.8 Hz     (500 m%)
    ac: freq = 5.012 kHz     (57 %), step = 545 Hz       (500 m%)
    ac: freq = 5.623 kHz   (57.5 %), step = 611.5 Hz     (500 m%)
    ac: freq = 6.31 kHz      (58 %), step = 686.2 Hz     (500 m%)
    ac: freq = 7.079 kHz   (58.5 %), step = 769.9 Hz     (500 m%)
    ac: freq = 7.943 kHz     (59 %), step = 863.8 Hz     (500 m%)
    ac: freq = 8.913 kHz   (59.5 %), step = 969.2 Hz     (500 m%)
    ac: freq = 10 kHz        (60 %), step = 1.087 kHz    (500 m%)
    ac: freq = 11.22 kHz   (60.5 %), step = 1.22 kHz     (500 m%)
    ac: freq = 12.59 kHz     (61 %), step = 1.369 kHz    (500 m%)
    ac: freq = 14.13 kHz   (61.5 %), step = 1.536 kHz    (500 m%)
    ac: freq = 15.85 kHz     (62 %), step = 1.724 kHz    (500 m%)
    ac: freq = 17.78 kHz   (62.5 %), step = 1.934 kHz    (500 m%)
    ac: freq = 19.95 kHz     (63 %), step = 2.17 kHz     (500 m%)
    ac: freq = 22.39 kHz   (63.5 %), step = 2.435 kHz    (500 m%)
    ac: freq = 25.12 kHz     (64 %), step = 2.732 kHz    (500 m%)
    ac: freq = 28.18 kHz   (64.5 %), step = 3.065 kHz    (500 m%)
    ac: freq = 31.62 kHz     (65 %), step = 3.439 kHz    (500 m%)
    ac: freq = 35.48 kHz   (65.5 %), step = 3.859 kHz    (500 m%)
    ac: freq = 39.81 kHz     (66 %), step = 4.329 kHz    (500 m%)
    ac: freq = 44.67 kHz   (66.5 %), step = 4.858 kHz    (500 m%)
    ac: freq = 50.12 kHz     (67 %), step = 5.45 kHz     (500 m%)
    ac: freq = 56.23 kHz   (67.5 %), step = 6.115 kHz    (500 m%)
    ac: freq = 63.1 kHz      (68 %), step = 6.862 kHz    (500 m%)
    ac: freq = 70.79 kHz   (68.5 %), step = 7.699 kHz    (500 m%)
    ac: freq = 79.43 kHz     (69 %), step = 8.638 kHz    (500 m%)
    ac: freq = 89.13 kHz   (69.5 %), step = 9.692 kHz    (500 m%)
    ac: freq = 100 kHz       (70 %), step = 10.87 kHz    (500 m%)
    ac: freq = 112.2 kHz   (70.5 %), step = 12.2 kHz     (500 m%)
    ac: freq = 125.9 kHz     (71 %), step = 13.69 kHz    (500 m%)
    ac: freq = 141.3 kHz   (71.5 %), step = 15.36 kHz    (500 m%)
    ac: freq = 158.5 kHz     (72 %), step = 17.24 kHz    (500 m%)
    ac: freq = 177.8 kHz   (72.5 %), step = 19.34 kHz    (500 m%)
    ac: freq = 199.5 kHz     (73 %), step = 21.7 kHz     (500 m%)
    ac: freq = 223.9 kHz   (73.5 %), step = 24.35 kHz    (500 m%)
    ac: freq = 251.2 kHz     (74 %), step = 27.32 kHz    (500 m%)
    ac: freq = 281.8 kHz   (74.5 %), step = 30.65 kHz    (500 m%)
    ac: freq = 316.2 kHz     (75 %), step = 34.39 kHz    (500 m%)
    ac: freq = 354.8 kHz   (75.5 %), step = 38.59 kHz    (500 m%)
    ac: freq = 398.1 kHz     (76 %), step = 43.29 kHz    (500 m%)
    ac: freq = 446.7 kHz   (76.5 %), step = 48.58 kHz    (500 m%)
    ac: freq = 501.2 kHz     (77 %), step = 54.5 kHz     (500 m%)
    ac: freq = 562.3 kHz   (77.5 %), step = 61.15 kHz    (500 m%)
    ac: freq = 631 kHz       (78 %), step = 68.62 kHz    (500 m%)
    ac: freq = 707.9 kHz   (78.5 %), step = 76.99 kHz    (500 m%)
    ac: freq = 794.3 kHz     (79 %), step = 86.38 kHz    (500 m%)
    ac: freq = 891.3 kHz   (79.5 %), step = 96.92 kHz    (500 m%)
    ac: freq = 1 MHz         (80 %), step = 108.7 kHz    (500 m%)
    ac: freq = 1.122 MHz   (80.5 %), step = 122 kHz      (500 m%)
    ac: freq = 1.259 MHz     (81 %), step = 136.9 kHz    (500 m%)
    ac: freq = 1.413 MHz   (81.5 %), step = 153.6 kHz    (500 m%)
    ac: freq = 1.585 MHz     (82 %), step = 172.4 kHz    (500 m%)
    ac: freq = 1.778 MHz   (82.5 %), step = 193.4 kHz    (500 m%)
    ac: freq = 1.995 MHz     (83 %), step = 217 kHz      (500 m%)
    ac: freq = 2.239 MHz   (83.5 %), step = 243.5 kHz    (500 m%)
    ac: freq = 2.512 MHz     (84 %), step = 273.2 kHz    (500 m%)
    ac: freq = 2.818 MHz   (84.5 %), step = 306.5 kHz    (500 m%)
    ac: freq = 3.162 MHz     (85 %), step = 343.9 kHz    (500 m%)
    ac: freq = 3.548 MHz   (85.5 %), step = 385.9 kHz    (500 m%)
    ac: freq = 3.981 MHz     (86 %), step = 432.9 kHz    (500 m%)
    ac: freq = 4.467 MHz   (86.5 %), step = 485.8 kHz    (500 m%)
    ac: freq = 5.012 MHz     (87 %), step = 545 kHz      (500 m%)
    ac: freq = 5.623 MHz   (87.5 %), step = 611.5 kHz    (500 m%)
    ac: freq = 6.31 MHz      (88 %), step = 686.2 kHz    (500 m%)
    ac: freq = 7.079 MHz   (88.5 %), step = 769.9 kHz    (500 m%)
    ac: freq = 7.943 MHz     (89 %), step = 863.8 kHz    (500 m%)
    ac: freq = 8.913 MHz   (89.5 %), step = 969.2 kHz    (500 m%)
    ac: freq = 10 MHz        (90 %), step = 1.087 MHz    (500 m%)
    ac: freq = 11.22 MHz   (90.5 %), step = 1.22 MHz     (500 m%)
    ac: freq = 12.59 MHz     (91 %), step = 1.369 MHz    (500 m%)
    ac: freq = 14.13 MHz   (91.5 %), step = 1.536 MHz    (500 m%)
    ac: freq = 15.85 MHz     (92 %), step = 1.724 MHz    (500 m%)
    ac: freq = 17.78 MHz   (92.5 %), step = 1.934 MHz    (500 m%)
    ac: freq = 19.95 MHz     (93 %), step = 2.17 MHz     (500 m%)
    ac: freq = 22.39 MHz   (93.5 %), step = 2.435 MHz    (500 m%)
    ac: freq = 25.12 MHz     (94 %), step = 2.732 MHz    (500 m%)
    ac: freq = 28.18 MHz   (94.5 %), step = 3.065 MHz    (500 m%)
    ac: freq = 31.62 MHz     (95 %), step = 3.439 MHz    (500 m%)
    ac: freq = 35.48 MHz   (95.5 %), step = 3.859 MHz    (500 m%)
    ac: freq = 39.81 MHz     (96 %), step = 4.329 MHz    (500 m%)
    ac: freq = 44.67 MHz   (96.5 %), step = 4.858 MHz    (500 m%)
    ac: freq = 50.12 MHz     (97 %), step = 5.45 MHz     (500 m%)
    ac: freq = 56.23 MHz   (97.5 %), step = 6.115 MHz    (500 m%)
    ac: freq = 63.1 MHz      (98 %), step = 6.862 MHz    (500 m%)
    ac: freq = 70.79 MHz   (98.5 %), step = 7.699 MHz    (500 m%)
    ac: freq = 79.43 MHz     (99 %), step = 8.638 MHz    (500 m%)
    ac: freq = 89.13 MHz   (99.5 %), step = 9.692 MHz    (500 m%)
    ac: freq = 100 MHz      (100 %), step = 10.87 MHz    (500 m%)
Accumulated DC solution time =            0 s.
Intrinsic ac analysis time =              0 s.
Total time required for ac analysis `ac': CPU = 23.674 ms, elapsed = 25.9571 ms.
Time accumulated: CPU = 544.507 ms, elapsed = 644.734 ms.
Peak resident memory used = 82.9 Mbytes.


***********************************************
Transient Analysis `tran': time = (0 s -> 5 ms)
***********************************************
DC simulation time: CPU = 516 us, elapsed = 515.938 us.

Opening the PSFXL file ../psf/tran.tran.tran ...
Important parameter values:
    start = 0 s
    outputstart = 0 s
    stop = 5 ms
    step = 5 us
    maxstep = 50 us
    ic = all
    useprevic = no
    skipdc = no
    reltol = 10e-06
    abstol(V) = 1 uV
    abstol(I) = 1 pA
    temp = 27 C
    tnom = 27 C
    tempeffects = all
    errpreset = conservative_sigglobal
    method = gear2only
    lteratio = 10
    relref = sigglobal
    cmin = 0 F
    gmin = 1 pS
    rabsshort = 1 mOhm


Notice from spectre during transient analysis `tran'.
    Multithreading is disabled due to the size of the design being too small.


Output and IC/nodeset summary:
                 save   10      (current)
                 save   57      (voltage)

    tran: time = 149.8 us       (3 %), step = 50 us           (1 %)
    tran: time = 399.8 us       (8 %), step = 50 us           (1 %)
    tran: time = 649.8 us      (13 %), step = 50 us           (1 %)
    tran: time = 899.8 us      (18 %), step = 50 us           (1 %)
    tran: time = 1.15 ms       (23 %), step = 50 us           (1 %)
    tran: time = 1.4 ms        (28 %), step = 50 us           (1 %)
    tran: time = 1.65 ms       (33 %), step = 50 us           (1 %)
    tran: time = 1.9 ms        (38 %), step = 50 us           (1 %)
    tran: time = 2.15 ms       (43 %), step = 50 us           (1 %)
    tran: time = 2.4 ms        (48 %), step = 50 us           (1 %)
    tran: time = 2.65 ms       (53 %), step = 50 us           (1 %)
    tran: time = 2.9 ms        (58 %), step = 50 us           (1 %)
    tran: time = 3.15 ms       (63 %), step = 50 us           (1 %)
    tran: time = 3.4 ms        (68 %), step = 50 us           (1 %)
    tran: time = 3.65 ms       (73 %), step = 50 us           (1 %)
    tran: time = 3.9 ms        (78 %), step = 50 us           (1 %)
    tran: time = 4.15 ms       (83 %), step = 50 us           (1 %)
    tran: time = 4.4 ms        (88 %), step = 50 us           (1 %)
    tran: time = 4.65 ms       (93 %), step = 50 us           (1 %)
    tran: time = 4.9 ms        (98 %), step = 50 us           (1 %)
Number of accepted tran steps =             222

Maximum value achieved for any signal of each quantity: 
V: V(net020) = 1.8 V
I: I(V4:p) = 17.51 uA
If your circuit contains signals of the same quantity that are vastly different in size (such as high voltage circuitry combined with low voltage control circuitry), you should consider specifying global option `bin_relref=yes'.

~~~~~~~~~~~~~~~~~~~~~~~~~~~~~~~~~
Post-Transient Simulation Summary
~~~~~~~~~~~~~~~~~~~~~~~~~~~~~~~~~
   -   Non-default settings that could significantly slow down simulation
          errpreset = conservative_sigglobal, default moderate
          reltol = 10e-06, default 100e-06 (conservative)
   -   Features that may significantly slowing down simulation
          iprobe = 12.12 % of total equations
~~~~~~~~~~~~~~~~~~~~~~~~~~~~~~~~~


During simulation, the CPU load for active processors is :
        Spectre  8 (66.0 %)     11 (7.5 %)      12 (9.4 %)      14 (1.9 %)
                15 (24.1 %)     
        Other    0 (3.8 %)       3 (100.0 %)    22 (15.4 %)     
Initial condition solution time: CPU = 568 us, elapsed = 571.012 us.
Intrinsic tran analysis time:    CPU = 43.777 ms, elapsed = 46.2 ms.
Total time required for tran analysis `tran': CPU = 46.492 ms, elapsed = 48.9118 ms.
Time accumulated: CPU = 596.908 ms, elapsed = 702.105 ms.
Peak resident memory used = 84.7 Mbytes.

finalTimeOP: writing operating point information to rawfile.

Opening the PSF file ../psf/finalTimeOP.info ...

******************
DC Analysis `dcOp'
******************

Opening the PSF file ../psf/dcOp.dc ...
Important parameter values:
    reltol = 100e-06
    abstol(V) = 1 uV
    abstol(I) = 1 pA
    temp = 27 C
    tnom = 27 C
    tempeffects = all
    gmindc = 1 pS
    rabsshort = 1 mOhm

Notice from spectre during DC analysis `dcOp'.
    Bad pivoting is found during DC analysis. Option dc_pivot_check=yes is recommended for possible improvement of convergence.


Maximum value achieved for any signal of each quantity: 
V: V(net020) = 1.8 V
I: I(V4:p) = 17.4 uA
Convergence achieved in 12 iterations.
DC simulation time: CPU = 4.824 ms, elapsed = 7.17497 ms.
Total time required for dc analysis `dcOp': CPU = 4.883 ms, elapsed = 7.231 ms.
Time accumulated: CPU = 609.059 ms, elapsed = 719.028 ms.
Peak resident memory used = 84.9 Mbytes.

dcOpInfo: writing operating point information to rawfile.

Opening the PSF file ../psf/dcOpInfo.info ...
modelParameter: writing model parameter values to rawfile.

Opening the PSF file ../psf/modelParameter.info ...
element: writing instance parameter values to rawfile.

Opening the PSF file ../psf/element.info ...
outputParameter: writing output parameter values to rawfile.

Opening the PSF file ../psf/outputParameter.info ...
designParamVals: writing netlist parameters to rawfile.

Opening the PSFASCII file ../psf/designParamVals.info ...
primitives: writing primitives to rawfile.

Opening the PSFASCII file ../psf/primitives.info.primitives ...
subckts: writing subcircuits to rawfile.

Opening the PSFASCII file ../psf/subckts.info.subckts ...

Aggregate audit (11:35:42 AM, Mon Oct 11, 2021):
Time used: CPU = 680 ms, elapsed = 816 ms, util. = 83.3%.
Time spent in licensing: elapsed = 26.6 ms.
Peak memory used = 85.7 Mbytes.
Simulation started at: 11:35:41 AM, Mon Oct 11, 2021, ended at: 11:35:42 AM, Mon Oct 11, 2021, with elapsed time (wall clock): 816 ms.
spectre completes with 0 errors, 1 warning, and 7 notices.


********* LOG ENDS **************
**                             **
