
Spectre (R) Circuit Simulator
Version 17.1.0.433.isr9 64bit -- 5 Nov 2018
Copyright (C) 1989-2018 Cadence Design Systems, Inc. All rights reserved worldwide. Cadence and Spectre are registered trademarks of Cadence Design Systems, Inc. All others are the property of their respective holders.

Includes RSA BSAFE(R) Cryptographic or Security Protocol Software from RSA Security, Inc.

User: ykhuang   Host: s2424   HostID: ED824314   PID: 14306
Memory  available: 20.9912 GB  physical: 67.2863 GB
Linux   : CentOS Linux release 7.9.2009 (Core)
CPU Type: Intel(R) Xeon(R) CPU E5-2630 v3 @ 2.40GHz
        Socket: Processors [Frequency] (Hyperthreaded Processor)
        0:       0 [1200.1] ( 16 ),  1 [3147.1] ( 17 ),  2 [1246.6] ( 18 )
                 3 [1201.0] ( 19 ),  4 [1200.0] ( 20 ),  5 [1266.5] ( 21 )
                 6 [1266.4] ( 22 ),  7 [1199.9] ( 23 )
        1:       8 [2400.0] ( 24 ),  9 [1200.0] ( 25 ), 10 [1314.3] ( 26 )
                11 [1281.3] ( 27 ), 12 [2034.1] ( 28 ), 13 [1420.3] ( 29 )
                14 [1200.1] ( 30 ), 15 [1200.1] ( 31 )
        
System load averages (1min, 5min, 15min) : 4.6 %, 4.8 %, 4.5 %
Hyperthreading is enabled


Simulating `/home/ykhuang/WorkingDir_XH018/Sim/MultiChannel_EMG_TestBench/MultiChannelAFE_TB_2/adexl/results/data/Interactive.15/1/MultiChannel_EMG_TestBench:MultiChannelAFE_TB_2:1/netlist/.mapi//xcelium.d/AMSD/ams_spice_in/./.amsspice_pre.ckt' on s2424 at 3:46:45 PM, Mon Oct 11, 2021 (process id: 14306).
Current working directory: /home/ykhuang/WorkingDir_XH018/Sim/MultiChannel_EMG_TestBench/MultiChannelAFE_TB_2/adexl/results/data/Interactive.15/1/MultiChannel_EMG_TestBench:MultiChannelAFE_TB_2:1/netlist
Environment variable:
    SPECTRE_DEFAULTS=
Command line:
    amsprimtool  \
        /home/ykhuang/WorkingDir_XH018/Sim/MultiChannel_EMG_TestBench/MultiChannelAFE_TB_2/adexl/results/data/Interactive.15/1/MultiChannel_EMG_TestBench:MultiChannelAFE_TB_2:1/netlist/.mapi//xcelium.d/AMSD/ams_spice_in/./.amsspice_pre.ckt  \
        -noraw -va,amsspice_pre -ahdllibdir  \
        /home/ykhuang/WorkingDir_XH018/Sim/MultiChannel_EMG_TestBench/MultiChannelAFE_TB_2/adexl/results/data/Interactive.15/1/MultiChannel_EMG_TestBench:MultiChannelAFE_TB_2:1/netlist/.mapi//xcelium.d/AMSD/ams_spice_in/ahdlSimDB  \
        =log  \
        /home/ykhuang/WorkingDir_XH018/Sim/MultiChannel_EMG_TestBench/MultiChannelAFE_TB_2/adexl/results/data/Interactive.15/1/MultiChannel_EMG_TestBench:MultiChannelAFE_TB_2:1/netlist/.mapi//xcelium.d/AMSD/ams_spice_in/./.amsspice_pre.ckt.log  \
        -token  \
        0001AF26C83A239465DFBB2CC00A229E73C4B63DFD3B60CB2080E838B83335D47FDDA126F37837D471DEB338DD1737BF79DEBF55B57661C35880EE1DB70325973FFD8A3BF7303E9E71DEAA2FD506049E57EF843BF66738D47ED3AD0AC828389A79F38C17C60D15A451F6D86EDD1B349E3FD1E23CE03C259775C3E62DF86031D471C4AE39C726338F62D1FC26AB7B7FCA2185A9388119139364D9AA07C91F15B67CEF8F2CE806129E63C48D72EF2B3C8F5DC5AE32E11335977EDEB920F3480FC944F2E227BB643C9275C4EA72EE2120927DD1B532AB66398E75DC8D5FD35603BF51FD9A3DB23420924FC3997BA0767ED47E9FB63EAA3E399863C0BD61EB083390759EF968F87F31982086880DDE8E537F10B0A126F35737FB71DEA80F9E0E50FB24B0C4528E5D339A7CDFB374B06561CA648AA83DC30C50FB10B0C959AD7F10B871D400009217

Loading /pkg/cadence/installs/XCELIUM1803/tools.lnx86/cmi/lib/64bit/5.0/libinfineon_sh.so ...
Loading /pkg/cadence/installs/XCELIUM1803/tools.lnx86/cmi/lib/64bit/5.0/libphilips_o_sh.so ...
Loading /pkg/cadence/installs/XCELIUM1803/tools.lnx86/cmi/lib/64bit/5.0/libphilips_sh.so ...
Loading /pkg/cadence/installs/XCELIUM1803/tools.lnx86/cmi/lib/64bit/5.0/libsparam_sh.so ...
Loading /pkg/cadence/installs/XCELIUM1803/tools.lnx86/cmi/lib/64bit/5.0/libstmodels_sh.so ...
Reading file:  /home/ykhuang/WorkingDir_XH018/Sim/MultiChannel_EMG_TestBench/MultiChannelAFE_TB_2/adexl/results/data/Interactive.15/1/MultiChannel_EMG_TestBench:MultiChannelAFE_TB_2:1/netlist/.mapi/xcelium.d/AMSD/ams_spice_in/.amsspice_pre.ckt
Reading file:  /pkg/cadence/installs/XCELIUM1803/tools.lnx86/spectre/etc/configs/mapsubckt.cfg
Reading file:  /pkg/cadence/installs/XCELIUM1803/tools.lnx86/spectre/etc/configs/spectre.cfg
Time for NDB Parsing: CPU = 125.589 ms, elapsed = 209.018 ms.
Time accumulated: CPU = 184.742 ms, elapsed = 209.042 ms.
Peak resident memory used = 50.4 Mbytes.

