
Spectre (R) Circuit Simulator
Version 17.1.0.433.isr9 64bit -- 5 Nov 2018
Copyright (C) 1989-2018 Cadence Design Systems, Inc. All rights reserved worldwide. Cadence and Spectre are registered trademarks of Cadence Design Systems, Inc. All others are the property of their respective holders.

Includes RSA BSAFE(R) Cryptographic or Security Protocol Software from RSA Security, Inc.

User: ykhuang   Host: s2424   HostID: ED824314   PID: 9860
Memory  available: 44.8810 GB  physical: 67.2863 GB
Linux   : CentOS Linux release 7.9.2009 (Core)
CPU Type: Intel(R) Xeon(R) CPU E5-2630 v3 @ 2.40GHz
        Socket: Processors [Frequency] (Hyperthreaded Processor)
        0:       0 [1200.0] ( 16 ),  1 [1386.2] ( 17 ),  2 [1511.4] ( 18 )
                 3 [1212.3] ( 19 ),  4 [1200.1] ( 20 ),  5 [1202.6] ( 21 )
                 6 [1200.0] ( 22 ),  7 [1200.0] ( 23 )
        1:       8 [1200.1] ( 24 ),  9 [1241.5] ( 25 ), 10 [1289.1] ( 26 )
                11 [1199.4] ( 27 ), 12 [1211.3] ( 28 ), 13 [1259.3] ( 29 )
                14 [1241.7] ( 30 ), 15 [1200.1] ( 31 )
        
System load averages (1min, 5min, 15min) : 0.8 %, 0.4 %, 0.3 %
Hyperthreading is enabled


Simulating `/home/ykhuang/WorkingDir_XH018/Sim/MultiChannel_EMG_Model/TCA_DSL/adexl/results/data/Interactive.4/1/MultiChannel_EMG_Model:TCA_DSL:1/netlist/.mapi//xcelium.d/AMSD/ams_spice_in/./.amsspice_pre.ckt' on s2424 at 10:56:41 AM, Fri Oct 1, 2021 (process id: 9860).
Current working directory: /home/ykhuang/WorkingDir_XH018/Sim/MultiChannel_EMG_Model/TCA_DSL/adexl/results/data/Interactive.4/1/MultiChannel_EMG_Model:TCA_DSL:1/netlist
Environment variable:
    SPECTRE_DEFAULTS=
Command line:
    amsprimtool  \
        /home/ykhuang/WorkingDir_XH018/Sim/MultiChannel_EMG_Model/TCA_DSL/adexl/results/data/Interactive.4/1/MultiChannel_EMG_Model:TCA_DSL:1/netlist/.mapi//xcelium.d/AMSD/ams_spice_in/./.amsspice_pre.ckt  \
        -noraw -va,amsspice_pre -ahdllibdir  \
        /home/ykhuang/WorkingDir_XH018/Sim/MultiChannel_EMG_Model/TCA_DSL/adexl/results/data/Interactive.4/1/MultiChannel_EMG_Model:TCA_DSL:1/netlist/.mapi//xcelium.d/AMSD/ams_spice_in/ahdlSimDB  \
        =log  \
        /home/ykhuang/WorkingDir_XH018/Sim/MultiChannel_EMG_Model/TCA_DSL/adexl/results/data/Interactive.4/1/MultiChannel_EMG_Model:TCA_DSL:1/netlist/.mapi//xcelium.d/AMSD/ams_spice_in/./.amsspice_pre.ckt.log  \
        -token  \
        0001AF26C83A239465DFBB2CC00A229E73C4B63DFD3B60CB2080E838B83335D47FDDA126F37837D471DEB338DD1737BF79DEBF55B57661C35880EE1DB70325973FFD8A3BF7303E9E71DEAA2FCC0C1D9457EF9051C80611A444F38576CC17358371D4A92DED673C8F63C5B83DB15A7FB264D1AC2CF721249271D3A938B4147FB63F819F3CF93E319553D8812FC40617A455FDA062F41004B87C8AA0549D4C61D45C8AB522F77624D479C3A062EC297F83799FB139A03D7E9F65DDA141A3103196549FB22EFB3C35A479D3A83DE53F31963F9EBB31C13F0F8B73D5ED2ABF3C709E7BC4AC3BE97F67DB23D3A83DDEB8537F10B0A126F35737FB71DEA80F9E0E50FB24B0C4528E5D339A7CDFB374B06561CA648AA83DC30C50FB10B0C96B207B9DBC71E600008380

Loading /pkg/cadence/installs/XCELIUM1803/tools.lnx86/cmi/lib/64bit/5.0/libinfineon_sh.so ...
Loading /pkg/cadence/installs/XCELIUM1803/tools.lnx86/cmi/lib/64bit/5.0/libphilips_o_sh.so ...
Loading /pkg/cadence/installs/XCELIUM1803/tools.lnx86/cmi/lib/64bit/5.0/libphilips_sh.so ...
Loading /pkg/cadence/installs/XCELIUM1803/tools.lnx86/cmi/lib/64bit/5.0/libsparam_sh.so ...
Loading /pkg/cadence/installs/XCELIUM1803/tools.lnx86/cmi/lib/64bit/5.0/libstmodels_sh.so ...
Reading file:  /home/ykhuang/WorkingDir_XH018/Sim/MultiChannel_EMG_Model/TCA_DSL/adexl/results/data/Interactive.4/1/MultiChannel_EMG_Model:TCA_DSL:1/netlist/.mapi/xcelium.d/AMSD/ams_spice_in/.amsspice_pre.ckt
Reading file:  /pkg/cadence/installs/XCELIUM1803/tools.lnx86/spectre/etc/configs/mapsubckt.cfg
Reading file:  /pkg/cadence/installs/XCELIUM1803/tools.lnx86/spectre/etc/configs/spectre.cfg
Time for NDB Parsing: CPU = 126.875 ms, elapsed = 220.011 ms.
Time accumulated: CPU = 181.261 ms, elapsed = 220.022 ms.
Peak resident memory used = 48.3 Mbytes.

